PPh3
     RDKit          2D

 19 21  0  0  0  0  0  0  0  0999 V2000
    4.5000   -0.0000    0.0000 C   0  0  0  0  0  0  0  0  0  0  0  0
    3.7500   -1.2990    0.0000 C   0  0  0  0  0  0  0  0  0  0  0  0
    2.2500   -1.2990    0.0000 C   0  0  0  0  0  0  0  0  0  0  0  0
    1.5000   -0.0000    0.0000 C   0  0  0  0  0  0  0  0  0  0  0  0
    0.0000    0.0000    0.0000 P   0  0  0  0  0  0  0  0  0  0  0  0
   -0.7500    1.2990    0.0000 C   0  0  0  0  0  0  0  0  0  0  0  0
    0.0000    2.5981    0.0000 C   0  0  0  0  0  0  0  0  0  0  0  0
   -0.7500    3.8971    0.0000 C   0  0  0  0  0  0  0  0  0  0  0  0
   -2.2500    3.8971    0.0000 C   0  0  0  0  0  0  0  0  0  0  0  0
   -3.0000    2.5981    0.0000 C   0  0  0  0  0  0  0  0  0  0  0  0
   -2.2500    1.2990    0.0000 C   0  0  0  0  0  0  0  0  0  0  0  0
   -0.7500   -1.2990    0.0000 C   0  0  0  0  0  0  0  0  0  0  0  0
   -2.2500   -1.2990    0.0000 C   0  0  0  0  0  0  0  0  0  0  0  0
   -3.0000   -2.5981    0.0000 C   0  0  0  0  0  0  0  0  0  0  0  0
   -2.2500   -3.8971    0.0000 C   0  0  0  0  0  0  0  0  0  0  0  0
   -0.7500   -3.8971    0.0000 C   0  0  0  0  0  0  0  0  0  0  0  0
   -0.0000   -2.5981    0.0000 C   0  0  0  0  0  0  0  0  0  0  0  0
    2.2500    1.2990    0.0000 C   0  0  0  0  0  0  0  0  0  0  0  0
    3.7500    1.2990    0.0000 C   0  0  0  0  0  0  0  0  0  0  0  0
  1  2  2  0
  2  3  1  0
  3  4  2  0
  4  5  1  0
  5  6  1  0
  6  7  2  0
  7  8  1  0
  8  9  2  0
  9 10  1  0
 10 11  2  0
  5 12  1  0
 12 13  2  0
 13 14  1  0
 14 15  2  0
 15 16  1  0
 16 17  2  0
  4 18  1  0
 18 19  2  0
 19  1  1  0
 11  6  1  0
 17 12  1  0
M  END
>  <linear_selectivity>  (1) 
25

>  <denticity>  (1) 
1

>  <ligand_class>  (1) 
phosphine

$$$$
PPh3_70C_toluene
     RDKit          2D

 19 21  0  0  0  0  0  0  0  0999 V2000
    4.5000   -0.0000    0.0000 C   0  0  0  0  0  0  0  0  0  0  0  0
    3.7500   -1.2990    0.0000 C   0  0  0  0  0  0  0  0  0  0  0  0
    2.2500   -1.2990    0.0000 C   0  0  0  0  0  0  0  0  0  0  0  0
    1.5000   -0.0000    0.0000 C   0  0  0  0  0  0  0  0  0  0  0  0
    0.0000    0.0000    0.0000 P   0  0  0  0  0  0  0  0  0  0  0  0
   -0.7500    1.2990    0.0000 C   0  0  0  0  0  0  0  0  0  0  0  0
    0.0000    2.5981    0.0000 C   0  0  0  0  0  0  0  0  0  0  0  0
   -0.7500    3.8971    0.0000 C   0  0  0  0  0  0  0  0  0  0  0  0
   -2.2500    3.8971    0.0000 C   0  0  0  0  0  0  0  0  0  0  0  0
   -3.0000    2.5981    0.0000 C   0  0  0  0  0  0  0  0  0  0  0  0
   -2.2500    1.2990    0.0000 C   0  0  0  0  0  0  0  0  0  0  0  0
   -0.7500   -1.2990    0.0000 C   0  0  0  0  0  0  0  0  0  0  0  0
   -2.2500   -1.2990    0.0000 C   0  0  0  0  0  0  0  0  0  0  0  0
   -3.0000   -2.5981    0.0000 C   0  0  0  0  0  0  0  0  0  0  0  0
   -2.2500   -3.8971    0.0000 C   0  0  0  0  0  0  0  0  0  0  0  0
   -0.7500   -3.8971    0.0000 C   0  0  0  0  0  0  0  0  0  0  0  0
   -0.0000   -2.5981    0.0000 C   0  0  0  0  0  0  0  0  0  0  0  0
    2.2500    1.2990    0.0000 C   0  0  0  0  0  0  0  0  0  0  0  0
    3.7500    1.2990    0.0000 C   0  0  0  0  0  0  0  0  0  0  0  0
  1  2  2  0
  2  3  1  0
  3  4  2  0
  4  5  1  0
  5  6  1  0
  6  7  2  0
  7  8  1  0
  8  9  2  0
  9 10  1  0
 10 11  2  0
  5 12  1  0
 12 13  2  0
 13 14  1  0
 14 15  2  0
 15 16  1  0
 16 17  2  0
  4 18  1  0
 18 19  2  0
 19  1  1  0
 11  6  1  0
 17 12  1  0
M  END
>  <linear_selectivity>  (2) 
28

>  <denticity>  (2) 
1

>  <ligand_class>  (2) 
phosphine

$$$$
PPh3_70C_dioxane
     RDKit          2D

 19 21  0  0  0  0  0  0  0  0999 V2000
    4.5000   -0.0000    0.0000 C   0  0  0  0  0  0  0  0  0  0  0  0
    3.7500   -1.2990    0.0000 C   0  0  0  0  0  0  0  0  0  0  0  0
    2.2500   -1.2990    0.0000 C   0  0  0  0  0  0  0  0  0  0  0  0
    1.5000   -0.0000    0.0000 C   0  0  0  0  0  0  0  0  0  0  0  0
    0.0000    0.0000    0.0000 P   0  0  0  0  0  0  0  0  0  0  0  0
   -0.7500    1.2990    0.0000 C   0  0  0  0  0  0  0  0  0  0  0  0
    0.0000    2.5981    0.0000 C   0  0  0  0  0  0  0  0  0  0  0  0
   -0.7500    3.8971    0.0000 C   0  0  0  0  0  0  0  0  0  0  0  0
   -2.2500    3.8971    0.0000 C   0  0  0  0  0  0  0  0  0  0  0  0
   -3.0000    2.5981    0.0000 C   0  0  0  0  0  0  0  0  0  0  0  0
   -2.2500    1.2990    0.0000 C   0  0  0  0  0  0  0  0  0  0  0  0
   -0.7500   -1.2990    0.0000 C   0  0  0  0  0  0  0  0  0  0  0  0
   -2.2500   -1.2990    0.0000 C   0  0  0  0  0  0  0  0  0  0  0  0
   -3.0000   -2.5981    0.0000 C   0  0  0  0  0  0  0  0  0  0  0  0
   -2.2500   -3.8971    0.0000 C   0  0  0  0  0  0  0  0  0  0  0  0
   -0.7500   -3.8971    0.0000 C   0  0  0  0  0  0  0  0  0  0  0  0
   -0.0000   -2.5981    0.0000 C   0  0  0  0  0  0  0  0  0  0  0  0
    2.2500    1.2990    0.0000 C   0  0  0  0  0  0  0  0  0  0  0  0
    3.7500    1.2990    0.0000 C   0  0  0  0  0  0  0  0  0  0  0  0
  1  2  2  0
  2  3  1  0
  3  4  2  0
  4  5  1  0
  5  6  1  0
  6  7  2  0
  7  8  1  0
  8  9  2  0
  9 10  1  0
 10 11  2  0
  5 12  1  0
 12 13  2  0
 13 14  1  0
 14 15  2  0
 15 16  1  0
 16 17  2  0
  4 18  1  0
 18 19  2  0
 19  1  1  0
 11  6  1  0
 17 12  1  0
M  END
>  <linear_selectivity>  (3) 
30

>  <denticity>  (3) 
1

>  <ligand_class>  (3) 
phosphine

$$$$
PPh3_70C_hexane
     RDKit          2D

 19 21  0  0  0  0  0  0  0  0999 V2000
    4.5000   -0.0000    0.0000 C   0  0  0  0  0  0  0  0  0  0  0  0
    3.7500   -1.2990    0.0000 C   0  0  0  0  0  0  0  0  0  0  0  0
    2.2500   -1.2990    0.0000 C   0  0  0  0  0  0  0  0  0  0  0  0
    1.5000   -0.0000    0.0000 C   0  0  0  0  0  0  0  0  0  0  0  0
    0.0000    0.0000    0.0000 P   0  0  0  0  0  0  0  0  0  0  0  0
   -0.7500    1.2990    0.0000 C   0  0  0  0  0  0  0  0  0  0  0  0
    0.0000    2.5981    0.0000 C   0  0  0  0  0  0  0  0  0  0  0  0
   -0.7500    3.8971    0.0000 C   0  0  0  0  0  0  0  0  0  0  0  0
   -2.2500    3.8971    0.0000 C   0  0  0  0  0  0  0  0  0  0  0  0
   -3.0000    2.5981    0.0000 C   0  0  0  0  0  0  0  0  0  0  0  0
   -2.2500    1.2990    0.0000 C   0  0  0  0  0  0  0  0  0  0  0  0
   -0.7500   -1.2990    0.0000 C   0  0  0  0  0  0  0  0  0  0  0  0
   -2.2500   -1.2990    0.0000 C   0  0  0  0  0  0  0  0  0  0  0  0
   -3.0000   -2.5981    0.0000 C   0  0  0  0  0  0  0  0  0  0  0  0
   -2.2500   -3.8971    0.0000 C   0  0  0  0  0  0  0  0  0  0  0  0
   -0.7500   -3.8971    0.0000 C   0  0  0  0  0  0  0  0  0  0  0  0
   -0.0000   -2.5981    0.0000 C   0  0  0  0  0  0  0  0  0  0  0  0
    2.2500    1.2990    0.0000 C   0  0  0  0  0  0  0  0  0  0  0  0
    3.7500    1.2990    0.0000 C   0  0  0  0  0  0  0  0  0  0  0  0
  1  2  2  0
  2  3  1  0
  3  4  2  0
  4  5  1  0
  5  6  1  0
  6  7  2  0
  7  8  1  0
  8  9  2  0
  9 10  1  0
 10 11  2  0
  5 12  1  0
 12 13  2  0
 13 14  1  0
 14 15  2  0
 15 16  1  0
 16 17  2  0
  4 18  1  0
 18 19  2  0
 19  1  1  0
 11  6  1  0
 17 12  1  0
M  END
>  <linear_selectivity>  (4) 
29

>  <denticity>  (4) 
1

>  <ligand_class>  (4) 
phosphine

$$$$
PPh3_70C_benzene
     RDKit          2D

 19 21  0  0  0  0  0  0  0  0999 V2000
    4.5000   -0.0000    0.0000 C   0  0  0  0  0  0  0  0  0  0  0  0
    3.7500   -1.2990    0.0000 C   0  0  0  0  0  0  0  0  0  0  0  0
    2.2500   -1.2990    0.0000 C   0  0  0  0  0  0  0  0  0  0  0  0
    1.5000   -0.0000    0.0000 C   0  0  0  0  0  0  0  0  0  0  0  0
    0.0000    0.0000    0.0000 P   0  0  0  0  0  0  0  0  0  0  0  0
   -0.7500    1.2990    0.0000 C   0  0  0  0  0  0  0  0  0  0  0  0
    0.0000    2.5981    0.0000 C   0  0  0  0  0  0  0  0  0  0  0  0
   -0.7500    3.8971    0.0000 C   0  0  0  0  0  0  0  0  0  0  0  0
   -2.2500    3.8971    0.0000 C   0  0  0  0  0  0  0  0  0  0  0  0
   -3.0000    2.5981    0.0000 C   0  0  0  0  0  0  0  0  0  0  0  0
   -2.2500    1.2990    0.0000 C   0  0  0  0  0  0  0  0  0  0  0  0
   -0.7500   -1.2990    0.0000 C   0  0  0  0  0  0  0  0  0  0  0  0
   -2.2500   -1.2990    0.0000 C   0  0  0  0  0  0  0  0  0  0  0  0
   -3.0000   -2.5981    0.0000 C   0  0  0  0  0  0  0  0  0  0  0  0
   -2.2500   -3.8971    0.0000 C   0  0  0  0  0  0  0  0  0  0  0  0
   -0.7500   -3.8971    0.0000 C   0  0  0  0  0  0  0  0  0  0  0  0
   -0.0000   -2.5981    0.0000 C   0  0  0  0  0  0  0  0  0  0  0  0
    2.2500    1.2990    0.0000 C   0  0  0  0  0  0  0  0  0  0  0  0
    3.7500    1.2990    0.0000 C   0  0  0  0  0  0  0  0  0  0  0  0
  1  2  2  0
  2  3  1  0
  3  4  2  0
  4  5  1  0
  5  6  1  0
  6  7  2  0
  7  8  1  0
  8  9  2  0
  9 10  1  0
 10 11  2  0
  5 12  1  0
 12 13  2  0
 13 14  1  0
 14 15  2  0
 15 16  1  0
 16 17  2  0
  4 18  1  0
 18 19  2  0
 19  1  1  0
 11  6  1  0
 17 12  1  0
M  END
>  <linear_selectivity>  (5) 
31

>  <denticity>  (5) 
1

>  <ligand_class>  (5) 
phosphine

$$$$
PPh3_70C_xylene
     RDKit          2D

 19 21  0  0  0  0  0  0  0  0999 V2000
    4.5000   -0.0000    0.0000 C   0  0  0  0  0  0  0  0  0  0  0  0
    3.7500   -1.2990    0.0000 C   0  0  0  0  0  0  0  0  0  0  0  0
    2.2500   -1.2990    0.0000 C   0  0  0  0  0  0  0  0  0  0  0  0
    1.5000   -0.0000    0.0000 C   0  0  0  0  0  0  0  0  0  0  0  0
    0.0000    0.0000    0.0000 P   0  0  0  0  0  0  0  0  0  0  0  0
   -0.7500    1.2990    0.0000 C   0  0  0  0  0  0  0  0  0  0  0  0
    0.0000    2.5981    0.0000 C   0  0  0  0  0  0  0  0  0  0  0  0
   -0.7500    3.8971    0.0000 C   0  0  0  0  0  0  0  0  0  0  0  0
   -2.2500    3.8971    0.0000 C   0  0  0  0  0  0  0  0  0  0  0  0
   -3.0000    2.5981    0.0000 C   0  0  0  0  0  0  0  0  0  0  0  0
   -2.2500    1.2990    0.0000 C   0  0  0  0  0  0  0  0  0  0  0  0
   -0.7500   -1.2990    0.0000 C   0  0  0  0  0  0  0  0  0  0  0  0
   -2.2500   -1.2990    0.0000 C   0  0  0  0  0  0  0  0  0  0  0  0
   -3.0000   -2.5981    0.0000 C   0  0  0  0  0  0  0  0  0  0  0  0
   -2.2500   -3.8971    0.0000 C   0  0  0  0  0  0  0  0  0  0  0  0
   -0.7500   -3.8971    0.0000 C   0  0  0  0  0  0  0  0  0  0  0  0
   -0.0000   -2.5981    0.0000 C   0  0  0  0  0  0  0  0  0  0  0  0
    2.2500    1.2990    0.0000 C   0  0  0  0  0  0  0  0  0  0  0  0
    3.7500    1.2990    0.0000 C   0  0  0  0  0  0  0  0  0  0  0  0
  1  2  2  0
  2  3  1  0
  3  4  2  0
  4  5  1  0
  5  6  1  0
  6  7  2  0
  7  8  1  0
  8  9  2  0
  9 10  1  0
 10 11  2  0
  5 12  1  0
 12 13  2  0
 13 14  1  0
 14 15  2  0
 15 16  1  0
 16 17  2  0
  4 18  1  0
 18 19  2  0
 19  1  1  0
 11  6  1  0
 17 12  1  0
M  END
>  <linear_selectivity>  (6) 
27

>  <denticity>  (6) 
1

>  <ligand_class>  (6) 
phosphine

$$$$
PPh3_80C_toluene
     RDKit          2D

 19 21  0  0  0  0  0  0  0  0999 V2000
    4.5000   -0.0000    0.0000 C   0  0  0  0  0  0  0  0  0  0  0  0
    3.7500   -1.2990    0.0000 C   0  0  0  0  0  0  0  0  0  0  0  0
    2.2500   -1.2990    0.0000 C   0  0  0  0  0  0  0  0  0  0  0  0
    1.5000   -0.0000    0.0000 C   0  0  0  0  0  0  0  0  0  0  0  0
    0.0000    0.0000    0.0000 P   0  0  0  0  0  0  0  0  0  0  0  0
   -0.7500    1.2990    0.0000 C   0  0  0  0  0  0  0  0  0  0  0  0
    0.0000    2.5981    0.0000 C   0  0  0  0  0  0  0  0  0  0  0  0
   -0.7500    3.8971    0.0000 C   0  0  0  0  0  0  0  0  0  0  0  0
   -2.2500    3.8971    0.0000 C   0  0  0  0  0  0  0  0  0  0  0  0
   -3.0000    2.5981    0.0000 C   0  0  0  0  0  0  0  0  0  0  0  0
   -2.2500    1.2990    0.0000 C   0  0  0  0  0  0  0  0  0  0  0  0
   -0.7500   -1.2990    0.0000 C   0  0  0  0  0  0  0  0  0  0  0  0
   -2.2500   -1.2990    0.0000 C   0  0  0  0  0  0  0  0  0  0  0  0
   -3.0000   -2.5981    0.0000 C   0  0  0  0  0  0  0  0  0  0  0  0
   -2.2500   -3.8971    0.0000 C   0  0  0  0  0  0  0  0  0  0  0  0
   -0.7500   -3.8971    0.0000 C   0  0  0  0  0  0  0  0  0  0  0  0
   -0.0000   -2.5981    0.0000 C   0  0  0  0  0  0  0  0  0  0  0  0
    2.2500    1.2990    0.0000 C   0  0  0  0  0  0  0  0  0  0  0  0
    3.7500    1.2990    0.0000 C   0  0  0  0  0  0  0  0  0  0  0  0
  1  2  2  0
  2  3  1  0
  3  4  2  0
  4  5  1  0
  5  6  1  0
  6  7  2  0
  7  8  1  0
  8  9  2  0
  9 10  1  0
 10 11  2  0
  5 12  1  0
 12 13  2  0
 13 14  1  0
 14 15  2  0
 15 16  1  0
 16 17  2  0
  4 18  1  0
 18 19  2  0
 19  1  1  0
 11  6  1  0
 17 12  1  0
M  END
>  <linear_selectivity>  (7) 
30

>  <denticity>  (7) 
1

>  <ligand_class>  (7) 
phosphine

$$$$
PPh3_80C_THF
     RDKit          2D

 19 21  0  0  0  0  0  0  0  0999 V2000
    4.5000   -0.0000    0.0000 C   0  0  0  0  0  0  0  0  0  0  0  0
    3.7500   -1.2990    0.0000 C   0  0  0  0  0  0  0  0  0  0  0  0
    2.2500   -1.2990    0.0000 C   0  0  0  0  0  0  0  0  0  0  0  0
    1.5000   -0.0000    0.0000 C   0  0  0  0  0  0  0  0  0  0  0  0
    0.0000    0.0000    0.0000 P   0  0  0  0  0  0  0  0  0  0  0  0
   -0.7500    1.2990    0.0000 C   0  0  0  0  0  0  0  0  0  0  0  0
    0.0000    2.5981    0.0000 C   0  0  0  0  0  0  0  0  0  0  0  0
   -0.7500    3.8971    0.0000 C   0  0  0  0  0  0  0  0  0  0  0  0
   -2.2500    3.8971    0.0000 C   0  0  0  0  0  0  0  0  0  0  0  0
   -3.0000    2.5981    0.0000 C   0  0  0  0  0  0  0  0  0  0  0  0
   -2.2500    1.2990    0.0000 C   0  0  0  0  0  0  0  0  0  0  0  0
   -0.7500   -1.2990    0.0000 C   0  0  0  0  0  0  0  0  0  0  0  0
   -2.2500   -1.2990    0.0000 C   0  0  0  0  0  0  0  0  0  0  0  0
   -3.0000   -2.5981    0.0000 C   0  0  0  0  0  0  0  0  0  0  0  0
   -2.2500   -3.8971    0.0000 C   0  0  0  0  0  0  0  0  0  0  0  0
   -0.7500   -3.8971    0.0000 C   0  0  0  0  0  0  0  0  0  0  0  0
   -0.0000   -2.5981    0.0000 C   0  0  0  0  0  0  0  0  0  0  0  0
    2.2500    1.2990    0.0000 C   0  0  0  0  0  0  0  0  0  0  0  0
    3.7500    1.2990    0.0000 C   0  0  0  0  0  0  0  0  0  0  0  0
  1  2  2  0
  2  3  1  0
  3  4  2  0
  4  5  1  0
  5  6  1  0
  6  7  2  0
  7  8  1  0
  8  9  2  0
  9 10  1  0
 10 11  2  0
  5 12  1  0
 12 13  2  0
 13 14  1  0
 14 15  2  0
 15 16  1  0
 16 17  2  0
  4 18  1  0
 18 19  2  0
 19  1  1  0
 11  6  1  0
 17 12  1  0
M  END
>  <linear_selectivity>  (8) 
26

>  <denticity>  (8) 
1

>  <ligand_class>  (8) 
phosphine

$$$$
PPh3_80C_hexane
     RDKit          2D

 19 21  0  0  0  0  0  0  0  0999 V2000
    4.5000   -0.0000    0.0000 C   0  0  0  0  0  0  0  0  0  0  0  0
    3.7500   -1.2990    0.0000 C   0  0  0  0  0  0  0  0  0  0  0  0
    2.2500   -1.2990    0.0000 C   0  0  0  0  0  0  0  0  0  0  0  0
    1.5000   -0.0000    0.0000 C   0  0  0  0  0  0  0  0  0  0  0  0
    0.0000    0.0000    0.0000 P   0  0  0  0  0  0  0  0  0  0  0  0
   -0.7500    1.2990    0.0000 C   0  0  0  0  0  0  0  0  0  0  0  0
    0.0000    2.5981    0.0000 C   0  0  0  0  0  0  0  0  0  0  0  0
   -0.7500    3.8971    0.0000 C   0  0  0  0  0  0  0  0  0  0  0  0
   -2.2500    3.8971    0.0000 C   0  0  0  0  0  0  0  0  0  0  0  0
   -3.0000    2.5981    0.0000 C   0  0  0  0  0  0  0  0  0  0  0  0
   -2.2500    1.2990    0.0000 C   0  0  0  0  0  0  0  0  0  0  0  0
   -0.7500   -1.2990    0.0000 C   0  0  0  0  0  0  0  0  0  0  0  0
   -2.2500   -1.2990    0.0000 C   0  0  0  0  0  0  0  0  0  0  0  0
   -3.0000   -2.5981    0.0000 C   0  0  0  0  0  0  0  0  0  0  0  0
   -2.2500   -3.8971    0.0000 C   0  0  0  0  0  0  0  0  0  0  0  0
   -0.7500   -3.8971    0.0000 C   0  0  0  0  0  0  0  0  0  0  0  0
   -0.0000   -2.5981    0.0000 C   0  0  0  0  0  0  0  0  0  0  0  0
    2.2500    1.2990    0.0000 C   0  0  0  0  0  0  0  0  0  0  0  0
    3.7500    1.2990    0.0000 C   0  0  0  0  0  0  0  0  0  0  0  0
  1  2  2  0
  2  3  1  0
  3  4  2  0
  4  5  1  0
  5  6  1  0
  6  7  2  0
  7  8  1  0
  8  9  2  0
  9 10  1  0
 10 11  2  0
  5 12  1  0
 12 13  2  0
 13 14  1  0
 14 15  2  0
 15 16  1  0
 16 17  2  0
  4 18  1  0
 18 19  2  0
 19  1  1  0
 11  6  1  0
 17 12  1  0
M  END
>  <linear_selectivity>  (9) 
24

>  <denticity>  (9) 
1

>  <ligand_class>  (9) 
phosphine

$$$$
PPh3_80C_benzene
     RDKit          2D

 19 21  0  0  0  0  0  0  0  0999 V2000
    4.5000   -0.0000    0.0000 C   0  0  0  0  0  0  0  0  0  0  0  0
    3.7500   -1.2990    0.0000 C   0  0  0  0  0  0  0  0  0  0  0  0
    2.2500   -1.2990    0.0000 C   0  0  0  0  0  0  0  0  0  0  0  0
    1.5000   -0.0000    0.0000 C   0  0  0  0  0  0  0  0  0  0  0  0
    0.0000    0.0000    0.0000 P   0  0  0  0  0  0  0  0  0  0  0  0
   -0.7500    1.2990    0.0000 C   0  0  0  0  0  0  0  0  0  0  0  0
    0.0000    2.5981    0.0000 C   0  0  0  0  0  0  0  0  0  0  0  0
   -0.7500    3.8971    0.0000 C   0  0  0  0  0  0  0  0  0  0  0  0
   -2.2500    3.8971    0.0000 C   0  0  0  0  0  0  0  0  0  0  0  0
   -3.0000    2.5981    0.0000 C   0  0  0  0  0  0  0  0  0  0  0  0
   -2.2500    1.2990    0.0000 C   0  0  0  0  0  0  0  0  0  0  0  0
   -0.7500   -1.2990    0.0000 C   0  0  0  0  0  0  0  0  0  0  0  0
   -2.2500   -1.2990    0.0000 C   0  0  0  0  0  0  0  0  0  0  0  0
   -3.0000   -2.5981    0.0000 C   0  0  0  0  0  0  0  0  0  0  0  0
   -2.2500   -3.8971    0.0000 C   0  0  0  0  0  0  0  0  0  0  0  0
   -0.7500   -3.8971    0.0000 C   0  0  0  0  0  0  0  0  0  0  0  0
   -0.0000   -2.5981    0.0000 C   0  0  0  0  0  0  0  0  0  0  0  0
    2.2500    1.2990    0.0000 C   0  0  0  0  0  0  0  0  0  0  0  0
    3.7500    1.2990    0.0000 C   0  0  0  0  0  0  0  0  0  0  0  0
  1  2  2  0
  2  3  1  0
  3  4  2  0
  4  5  1  0
  5  6  1  0
  6  7  2  0
  7  8  1  0
  8  9  2  0
  9 10  1  0
 10 11  2  0
  5 12  1  0
 12 13  2  0
 13 14  1  0
 14 15  2  0
 15 16  1  0
 16 17  2  0
  4 18  1  0
 18 19  2  0
 19  1  1  0
 11  6  1  0
 17 12  1  0
M  END
>  <linear_selectivity>  (10) 
31

>  <denticity>  (10) 
1

>  <ligand_class>  (10) 
phosphine

$$$$
PPh3_80C_xylene
     RDKit          2D

 19 21  0  0  0  0  0  0  0  0999 V2000
    4.5000   -0.0000    0.0000 C   0  0  0  0  0  0  0  0  0  0  0  0
    3.7500   -1.2990    0.0000 C   0  0  0  0  0  0  0  0  0  0  0  0
    2.2500   -1.2990    0.0000 C   0  0  0  0  0  0  0  0  0  0  0  0
    1.5000   -0.0000    0.0000 C   0  0  0  0  0  0  0  0  0  0  0  0
    0.0000    0.0000    0.0000 P   0  0  0  0  0  0  0  0  0  0  0  0
   -0.7500    1.2990    0.0000 C   0  0  0  0  0  0  0  0  0  0  0  0
    0.0000    2.5981    0.0000 C   0  0  0  0  0  0  0  0  0  0  0  0
   -0.7500    3.8971    0.0000 C   0  0  0  0  0  0  0  0  0  0  0  0
   -2.2500    3.8971    0.0000 C   0  0  0  0  0  0  0  0  0  0  0  0
   -3.0000    2.5981    0.0000 C   0  0  0  0  0  0  0  0  0  0  0  0
   -2.2500    1.2990    0.0000 C   0  0  0  0  0  0  0  0  0  0  0  0
   -0.7500   -1.2990    0.0000 C   0  0  0  0  0  0  0  0  0  0  0  0
   -2.2500   -1.2990    0.0000 C   0  0  0  0  0  0  0  0  0  0  0  0
   -3.0000   -2.5981    0.0000 C   0  0  0  0  0  0  0  0  0  0  0  0
   -2.2500   -3.8971    0.0000 C   0  0  0  0  0  0  0  0  0  0  0  0
   -0.7500   -3.8971    0.0000 C   0  0  0  0  0  0  0  0  0  0  0  0
   -0.0000   -2.5981    0.0000 C   0  0  0  0  0  0  0  0  0  0  0  0
    2.2500    1.2990    0.0000 C   0  0  0  0  0  0  0  0  0  0  0  0
    3.7500    1.2990    0.0000 C   0  0  0  0  0  0  0  0  0  0  0  0
  1  2  2  0
  2  3  1  0
  3  4  2  0
  4  5  1  0
  5  6  1  0
  6  7  2  0
  7  8  1  0
  8  9  2  0
  9 10  1  0
 10 11  2  0
  5 12  1  0
 12 13  2  0
 13 14  1  0
 14 15  2  0
 15 16  1  0
 16 17  2  0
  4 18  1  0
 18 19  2  0
 19  1  1  0
 11  6  1  0
 17 12  1  0
M  END
>  <linear_selectivity>  (11) 
30

>  <denticity>  (11) 
1

>  <ligand_class>  (11) 
phosphine

$$$$
PPh3_90C_toluene
     RDKit          2D

 19 21  0  0  0  0  0  0  0  0999 V2000
    4.5000   -0.0000    0.0000 C   0  0  0  0  0  0  0  0  0  0  0  0
    3.7500   -1.2990    0.0000 C   0  0  0  0  0  0  0  0  0  0  0  0
    2.2500   -1.2990    0.0000 C   0  0  0  0  0  0  0  0  0  0  0  0
    1.5000   -0.0000    0.0000 C   0  0  0  0  0  0  0  0  0  0  0  0
    0.0000    0.0000    0.0000 P   0  0  0  0  0  0  0  0  0  0  0  0
   -0.7500    1.2990    0.0000 C   0  0  0  0  0  0  0  0  0  0  0  0
    0.0000    2.5981    0.0000 C   0  0  0  0  0  0  0  0  0  0  0  0
   -0.7500    3.8971    0.0000 C   0  0  0  0  0  0  0  0  0  0  0  0
   -2.2500    3.8971    0.0000 C   0  0  0  0  0  0  0  0  0  0  0  0
   -3.0000    2.5981    0.0000 C   0  0  0  0  0  0  0  0  0  0  0  0
   -2.2500    1.2990    0.0000 C   0  0  0  0  0  0  0  0  0  0  0  0
   -0.7500   -1.2990    0.0000 C   0  0  0  0  0  0  0  0  0  0  0  0
   -2.2500   -1.2990    0.0000 C   0  0  0  0  0  0  0  0  0  0  0  0
   -3.0000   -2.5981    0.0000 C   0  0  0  0  0  0  0  0  0  0  0  0
   -2.2500   -3.8971    0.0000 C   0  0  0  0  0  0  0  0  0  0  0  0
   -0.7500   -3.8971    0.0000 C   0  0  0  0  0  0  0  0  0  0  0  0
   -0.0000   -2.5981    0.0000 C   0  0  0  0  0  0  0  0  0  0  0  0
    2.2500    1.2990    0.0000 C   0  0  0  0  0  0  0  0  0  0  0  0
    3.7500    1.2990    0.0000 C   0  0  0  0  0  0  0  0  0  0  0  0
  1  2  2  0
  2  3  1  0
  3  4  2  0
  4  5  1  0
  5  6  1  0
  6  7  2  0
  7  8  1  0
  8  9  2  0
  9 10  1  0
 10 11  2  0
  5 12  1  0
 12 13  2  0
 13 14  1  0
 14 15  2  0
 15 16  1  0
 16 17  2  0
  4 18  1  0
 18 19  2  0
 19  1  1  0
 11  6  1  0
 17 12  1  0
M  END
>  <linear_selectivity>  (12) 
24

>  <denticity>  (12) 
1

>  <ligand_class>  (12) 
phosphine

$$$$
PPh3_90C_THF
     RDKit          2D

 19 21  0  0  0  0  0  0  0  0999 V2000
    4.5000   -0.0000    0.0000 C   0  0  0  0  0  0  0  0  0  0  0  0
    3.7500   -1.2990    0.0000 C   0  0  0  0  0  0  0  0  0  0  0  0
    2.2500   -1.2990    0.0000 C   0  0  0  0  0  0  0  0  0  0  0  0
    1.5000   -0.0000    0.0000 C   0  0  0  0  0  0  0  0  0  0  0  0
    0.0000    0.0000    0.0000 P   0  0  0  0  0  0  0  0  0  0  0  0
   -0.7500    1.2990    0.0000 C   0  0  0  0  0  0  0  0  0  0  0  0
    0.0000    2.5981    0.0000 C   0  0  0  0  0  0  0  0  0  0  0  0
   -0.7500    3.8971    0.0000 C   0  0  0  0  0  0  0  0  0  0  0  0
   -2.2500    3.8971    0.0000 C   0  0  0  0  0  0  0  0  0  0  0  0
   -3.0000    2.5981    0.0000 C   0  0  0  0  0  0  0  0  0  0  0  0
   -2.2500    1.2990    0.0000 C   0  0  0  0  0  0  0  0  0  0  0  0
   -0.7500   -1.2990    0.0000 C   0  0  0  0  0  0  0  0  0  0  0  0
   -2.2500   -1.2990    0.0000 C   0  0  0  0  0  0  0  0  0  0  0  0
   -3.0000   -2.5981    0.0000 C   0  0  0  0  0  0  0  0  0  0  0  0
   -2.2500   -3.8971    0.0000 C   0  0  0  0  0  0  0  0  0  0  0  0
   -0.7500   -3.8971    0.0000 C   0  0  0  0  0  0  0  0  0  0  0  0
   -0.0000   -2.5981    0.0000 C   0  0  0  0  0  0  0  0  0  0  0  0
    2.2500    1.2990    0.0000 C   0  0  0  0  0  0  0  0  0  0  0  0
    3.7500    1.2990    0.0000 C   0  0  0  0  0  0  0  0  0  0  0  0
  1  2  2  0
  2  3  1  0
  3  4  2  0
  4  5  1  0
  5  6  1  0
  6  7  2  0
  7  8  1  0
  8  9  2  0
  9 10  1  0
 10 11  2  0
  5 12  1  0
 12 13  2  0
 13 14  1  0
 14 15  2  0
 15 16  1  0
 16 17  2  0
  4 18  1  0
 18 19  2  0
 19  1  1  0
 11  6  1  0
 17 12  1  0
M  END
>  <linear_selectivity>  (13) 
24

>  <denticity>  (13) 
1

>  <ligand_class>  (13) 
phosphine

$$$$
PPh3_90C_hexane
     RDKit          2D

 19 21  0  0  0  0  0  0  0  0999 V2000
    4.5000   -0.0000    0.0000 C   0  0  0  0  0  0  0  0  0  0  0  0
    3.7500   -1.2990    0.0000 C   0  0  0  0  0  0  0  0  0  0  0  0
    2.2500   -1.2990    0.0000 C   0  0  0  0  0  0  0  0  0  0  0  0
    1.5000   -0.0000    0.0000 C   0  0  0  0  0  0  0  0  0  0  0  0
    0.0000    0.0000    0.0000 P   0  0  0  0  0  0  0  0  0  0  0  0
   -0.7500    1.2990    0.0000 C   0  0  0  0  0  0  0  0  0  0  0  0
    0.0000    2.5981    0.0000 C   0  0  0  0  0  0  0  0  0  0  0  0
   -0.7500    3.8971    0.0000 C   0  0  0  0  0  0  0  0  0  0  0  0
   -2.2500    3.8971    0.0000 C   0  0  0  0  0  0  0  0  0  0  0  0
   -3.0000    2.5981    0.0000 C   0  0  0  0  0  0  0  0  0  0  0  0
   -2.2500    1.2990    0.0000 C   0  0  0  0  0  0  0  0  0  0  0  0
   -0.7500   -1.2990    0.0000 C   0  0  0  0  0  0  0  0  0  0  0  0
   -2.2500   -1.2990    0.0000 C   0  0  0  0  0  0  0  0  0  0  0  0
   -3.0000   -2.5981    0.0000 C   0  0  0  0  0  0  0  0  0  0  0  0
   -2.2500   -3.8971    0.0000 C   0  0  0  0  0  0  0  0  0  0  0  0
   -0.7500   -3.8971    0.0000 C   0  0  0  0  0  0  0  0  0  0  0  0
   -0.0000   -2.5981    0.0000 C   0  0  0  0  0  0  0  0  0  0  0  0
    2.2500    1.2990    0.0000 C   0  0  0  0  0  0  0  0  0  0  0  0
    3.7500    1.2990    0.0000 C   0  0  0  0  0  0  0  0  0  0  0  0
  1  2  2  0
  2  3  1  0
  3  4  2  0
  4  5  1  0
  5  6  1  0
  6  7  2  0
  7  8  1  0
  8  9  2  0
  9 10  1  0
 10 11  2  0
  5 12  1  0
 12 13  2  0
 13 14  1  0
 14 15  2  0
 15 16  1  0
 16 17  2  0
  4 18  1  0
 18 19  2  0
 19  1  1  0
 11  6  1  0
 17 12  1  0
M  END
>  <linear_selectivity>  (14) 
30

>  <denticity>  (14) 
1

>  <ligand_class>  (14) 
phosphine

$$$$
PPh3_90C_benzene
     RDKit          2D

 19 21  0  0  0  0  0  0  0  0999 V2000
    4.5000   -0.0000    0.0000 C   0  0  0  0  0  0  0  0  0  0  0  0
    3.7500   -1.2990    0.0000 C   0  0  0  0  0  0  0  0  0  0  0  0
    2.2500   -1.2990    0.0000 C   0  0  0  0  0  0  0  0  0  0  0  0
    1.5000   -0.0000    0.0000 C   0  0  0  0  0  0  0  0  0  0  0  0
    0.0000    0.0000    0.0000 P   0  0  0  0  0  0  0  0  0  0  0  0
   -0.7500    1.2990    0.0000 C   0  0  0  0  0  0  0  0  0  0  0  0
    0.0000    2.5981    0.0000 C   0  0  0  0  0  0  0  0  0  0  0  0
   -0.7500    3.8971    0.0000 C   0  0  0  0  0  0  0  0  0  0  0  0
   -2.2500    3.8971    0.0000 C   0  0  0  0  0  0  0  0  0  0  0  0
   -3.0000    2.5981    0.0000 C   0  0  0  0  0  0  0  0  0  0  0  0
   -2.2500    1.2990    0.0000 C   0  0  0  0  0  0  0  0  0  0  0  0
   -0.7500   -1.2990    0.0000 C   0  0  0  0  0  0  0  0  0  0  0  0
   -2.2500   -1.2990    0.0000 C   0  0  0  0  0  0  0  0  0  0  0  0
   -3.0000   -2.5981    0.0000 C   0  0  0  0  0  0  0  0  0  0  0  0
   -2.2500   -3.8971    0.0000 C   0  0  0  0  0  0  0  0  0  0  0  0
   -0.7500   -3.8971    0.0000 C   0  0  0  0  0  0  0  0  0  0  0  0
   -0.0000   -2.5981    0.0000 C   0  0  0  0  0  0  0  0  0  0  0  0
    2.2500    1.2990    0.0000 C   0  0  0  0  0  0  0  0  0  0  0  0
    3.7500    1.2990    0.0000 C   0  0  0  0  0  0  0  0  0  0  0  0
  1  2  2  0
  2  3  1  0
  3  4  2  0
  4  5  1  0
  5  6  1  0
  6  7  2  0
  7  8  1  0
  8  9  2  0
  9 10  1  0
 10 11  2  0
  5 12  1  0
 12 13  2  0
 13 14  1  0
 14 15  2  0
 15 16  1  0
 16 17  2  0
  4 18  1  0
 18 19  2  0
 19  1  1  0
 11  6  1  0
 17 12  1  0
M  END
>  <linear_selectivity>  (15) 
26

>  <denticity>  (15) 
1

>  <ligand_class>  (15) 
phosphine

$$$$
PPh3_90C_xylene
     RDKit          2D

 19 21  0  0  0  0  0  0  0  0999 V2000
    4.5000   -0.0000    0.0000 C   0  0  0  0  0  0  0  0  0  0  0  0
    3.7500   -1.2990    0.0000 C   0  0  0  0  0  0  0  0  0  0  0  0
    2.2500   -1.2990    0.0000 C   0  0  0  0  0  0  0  0  0  0  0  0
    1.5000   -0.0000    0.0000 C   0  0  0  0  0  0  0  0  0  0  0  0
    0.0000    0.0000    0.0000 P   0  0  0  0  0  0  0  0  0  0  0  0
   -0.7500    1.2990    0.0000 C   0  0  0  0  0  0  0  0  0  0  0  0
    0.0000    2.5981    0.0000 C   0  0  0  0  0  0  0  0  0  0  0  0
   -0.7500    3.8971    0.0000 C   0  0  0  0  0  0  0  0  0  0  0  0
   -2.2500    3.8971    0.0000 C   0  0  0  0  0  0  0  0  0  0  0  0
   -3.0000    2.5981    0.0000 C   0  0  0  0  0  0  0  0  0  0  0  0
   -2.2500    1.2990    0.0000 C   0  0  0  0  0  0  0  0  0  0  0  0
   -0.7500   -1.2990    0.0000 C   0  0  0  0  0  0  0  0  0  0  0  0
   -2.2500   -1.2990    0.0000 C   0  0  0  0  0  0  0  0  0  0  0  0
   -3.0000   -2.5981    0.0000 C   0  0  0  0  0  0  0  0  0  0  0  0
   -2.2500   -3.8971    0.0000 C   0  0  0  0  0  0  0  0  0  0  0  0
   -0.7500   -3.8971    0.0000 C   0  0  0  0  0  0  0  0  0  0  0  0
   -0.0000   -2.5981    0.0000 C   0  0  0  0  0  0  0  0  0  0  0  0
    2.2500    1.2990    0.0000 C   0  0  0  0  0  0  0  0  0  0  0  0
    3.7500    1.2990    0.0000 C   0  0  0  0  0  0  0  0  0  0  0  0
  1  2  2  0
  2  3  1  0
  3  4  2  0
  4  5  1  0
  5  6  1  0
  6  7  2  0
  7  8  1  0
  8  9  2  0
  9 10  1  0
 10 11  2  0
  5 12  1  0
 12 13  2  0
 13 14  1  0
 14 15  2  0
 15 16  1  0
 16 17  2  0
  4 18  1  0
 18 19  2  0
 19  1  1  0
 11  6  1  0
 17 12  1  0
M  END
>  <linear_selectivity>  (16) 
26

>  <denticity>  (16) 
1

>  <ligand_class>  (16) 
phosphine

$$$$
PPh3_100C_toluene
     RDKit          2D

 19 21  0  0  0  0  0  0  0  0999 V2000
    4.5000   -0.0000    0.0000 C   0  0  0  0  0  0  0  0  0  0  0  0
    3.7500   -1.2990    0.0000 C   0  0  0  0  0  0  0  0  0  0  0  0
    2.2500   -1.2990    0.0000 C   0  0  0  0  0  0  0  0  0  0  0  0
    1.5000   -0.0000    0.0000 C   0  0  0  0  0  0  0  0  0  0  0  0
    0.0000    0.0000    0.0000 P   0  0  0  0  0  0  0  0  0  0  0  0
   -0.7500    1.2990    0.0000 C   0  0  0  0  0  0  0  0  0  0  0  0
    0.0000    2.5981    0.0000 C   0  0  0  0  0  0  0  0  0  0  0  0
   -0.7500    3.8971    0.0000 C   0  0  0  0  0  0  0  0  0  0  0  0
   -2.2500    3.8971    0.0000 C   0  0  0  0  0  0  0  0  0  0  0  0
   -3.0000    2.5981    0.0000 C   0  0  0  0  0  0  0  0  0  0  0  0
   -2.2500    1.2990    0.0000 C   0  0  0  0  0  0  0  0  0  0  0  0
   -0.7500   -1.2990    0.0000 C   0  0  0  0  0  0  0  0  0  0  0  0
   -2.2500   -1.2990    0.0000 C   0  0  0  0  0  0  0  0  0  0  0  0
   -3.0000   -2.5981    0.0000 C   0  0  0  0  0  0  0  0  0  0  0  0
   -2.2500   -3.8971    0.0000 C   0  0  0  0  0  0  0  0  0  0  0  0
   -0.7500   -3.8971    0.0000 C   0  0  0  0  0  0  0  0  0  0  0  0
   -0.0000   -2.5981    0.0000 C   0  0  0  0  0  0  0  0  0  0  0  0
    2.2500    1.2990    0.0000 C   0  0  0  0  0  0  0  0  0  0  0  0
    3.7500    1.2990    0.0000 C   0  0  0  0  0  0  0  0  0  0  0  0
  1  2  2  0
  2  3  1  0
  3  4  2  0
  4  5  1  0
  5  6  1  0
  6  7  2  0
  7  8  1  0
  8  9  2  0
  9 10  1  0
 10 11  2  0
  5 12  1  0
 12 13  2  0
 13 14  1  0
 14 15  2  0
 15 16  1  0
 16 17  2  0
  4 18  1  0
 18 19  2  0
 19  1  1  0
 11  6  1  0
 17 12  1  0
M  END
>  <linear_selectivity>  (17) 
27

>  <denticity>  (17) 
1

>  <ligand_class>  (17) 
phosphine

$$$$
PPh3_100C_dioxane
     RDKit          2D

 19 21  0  0  0  0  0  0  0  0999 V2000
    4.5000   -0.0000    0.0000 C   0  0  0  0  0  0  0  0  0  0  0  0
    3.7500   -1.2990    0.0000 C   0  0  0  0  0  0  0  0  0  0  0  0
    2.2500   -1.2990    0.0000 C   0  0  0  0  0  0  0  0  0  0  0  0
    1.5000   -0.0000    0.0000 C   0  0  0  0  0  0  0  0  0  0  0  0
    0.0000    0.0000    0.0000 P   0  0  0  0  0  0  0  0  0  0  0  0
   -0.7500    1.2990    0.0000 C   0  0  0  0  0  0  0  0  0  0  0  0
    0.0000    2.5981    0.0000 C   0  0  0  0  0  0  0  0  0  0  0  0
   -0.7500    3.8971    0.0000 C   0  0  0  0  0  0  0  0  0  0  0  0
   -2.2500    3.8971    0.0000 C   0  0  0  0  0  0  0  0  0  0  0  0
   -3.0000    2.5981    0.0000 C   0  0  0  0  0  0  0  0  0  0  0  0
   -2.2500    1.2990    0.0000 C   0  0  0  0  0  0  0  0  0  0  0  0
   -0.7500   -1.2990    0.0000 C   0  0  0  0  0  0  0  0  0  0  0  0
   -2.2500   -1.2990    0.0000 C   0  0  0  0  0  0  0  0  0  0  0  0
   -3.0000   -2.5981    0.0000 C   0  0  0  0  0  0  0  0  0  0  0  0
   -2.2500   -3.8971    0.0000 C   0  0  0  0  0  0  0  0  0  0  0  0
   -0.7500   -3.8971    0.0000 C   0  0  0  0  0  0  0  0  0  0  0  0
   -0.0000   -2.5981    0.0000 C   0  0  0  0  0  0  0  0  0  0  0  0
    2.2500    1.2990    0.0000 C   0  0  0  0  0  0  0  0  0  0  0  0
    3.7500    1.2990    0.0000 C   0  0  0  0  0  0  0  0  0  0  0  0
  1  2  2  0
  2  3  1  0
  3  4  2  0
  4  5  1  0
  5  6  1  0
  6  7  2  0
  7  8  1  0
  8  9  2  0
  9 10  1  0
 10 11  2  0
  5 12  1  0
 12 13  2  0
 13 14  1  0
 14 15  2  0
 15 16  1  0
 16 17  2  0
  4 18  1  0
 18 19  2  0
 19  1  1  0
 11  6  1  0
 17 12  1  0
M  END
>  <linear_selectivity>  (18) 
25

>  <denticity>  (18) 
1

>  <ligand_class>  (18) 
phosphine

$$$$
PPh3_100C_xylene
     RDKit          2D

 19 21  0  0  0  0  0  0  0  0999 V2000
    4.5000   -0.0000    0.0000 C   0  0  0  0  0  0  0  0  0  0  0  0
    3.7500   -1.2990    0.0000 C   0  0  0  0  0  0  0  0  0  0  0  0
    2.2500   -1.2990    0.0000 C   0  0  0  0  0  0  0  0  0  0  0  0
    1.5000   -0.0000    0.0000 C   0  0  0  0  0  0  0  0  0  0  0  0
    0.0000    0.0000    0.0000 P   0  0  0  0  0  0  0  0  0  0  0  0
   -0.7500    1.2990    0.0000 C   0  0  0  0  0  0  0  0  0  0  0  0
    0.0000    2.5981    0.0000 C   0  0  0  0  0  0  0  0  0  0  0  0
   -0.7500    3.8971    0.0000 C   0  0  0  0  0  0  0  0  0  0  0  0
   -2.2500    3.8971    0.0000 C   0  0  0  0  0  0  0  0  0  0  0  0
   -3.0000    2.5981    0.0000 C   0  0  0  0  0  0  0  0  0  0  0  0
   -2.2500    1.2990    0.0000 C   0  0  0  0  0  0  0  0  0  0  0  0
   -0.7500   -1.2990    0.0000 C   0  0  0  0  0  0  0  0  0  0  0  0
   -2.2500   -1.2990    0.0000 C   0  0  0  0  0  0  0  0  0  0  0  0
   -3.0000   -2.5981    0.0000 C   0  0  0  0  0  0  0  0  0  0  0  0
   -2.2500   -3.8971    0.0000 C   0  0  0  0  0  0  0  0  0  0  0  0
   -0.7500   -3.8971    0.0000 C   0  0  0  0  0  0  0  0  0  0  0  0
   -0.0000   -2.5981    0.0000 C   0  0  0  0  0  0  0  0  0  0  0  0
    2.2500    1.2990    0.0000 C   0  0  0  0  0  0  0  0  0  0  0  0
    3.7500    1.2990    0.0000 C   0  0  0  0  0  0  0  0  0  0  0  0
  1  2  2  0
  2  3  1  0
  3  4  2  0
  4  5  1  0
  5  6  1  0
  6  7  2  0
  7  8  1  0
  8  9  2  0
  9 10  1  0
 10 11  2  0
  5 12  1  0
 12 13  2  0
 13 14  1  0
 14 15  2  0
 15 16  1  0
 16 17  2  0
  4 18  1  0
 18 19  2  0
 19  1  1  0
 11  6  1  0
 17 12  1  0
M  END
>  <linear_selectivity>  (19) 
24

>  <denticity>  (19) 
1

>  <ligand_class>  (19) 
phosphine

$$$$
PPh3_110C_dioxane
     RDKit          2D

 19 21  0  0  0  0  0  0  0  0999 V2000
    4.5000   -0.0000    0.0000 C   0  0  0  0  0  0  0  0  0  0  0  0
    3.7500   -1.2990    0.0000 C   0  0  0  0  0  0  0  0  0  0  0  0
    2.2500   -1.2990    0.0000 C   0  0  0  0  0  0  0  0  0  0  0  0
    1.5000   -0.0000    0.0000 C   0  0  0  0  0  0  0  0  0  0  0  0
    0.0000    0.0000    0.0000 P   0  0  0  0  0  0  0  0  0  0  0  0
   -0.7500    1.2990    0.0000 C   0  0  0  0  0  0  0  0  0  0  0  0
    0.0000    2.5981    0.0000 C   0  0  0  0  0  0  0  0  0  0  0  0
   -0.7500    3.8971    0.0000 C   0  0  0  0  0  0  0  0  0  0  0  0
   -2.2500    3.8971    0.0000 C   0  0  0  0  0  0  0  0  0  0  0  0
   -3.0000    2.5981    0.0000 C   0  0  0  0  0  0  0  0  0  0  0  0
   -2.2500    1.2990    0.0000 C   0  0  0  0  0  0  0  0  0  0  0  0
   -0.7500   -1.2990    0.0000 C   0  0  0  0  0  0  0  0  0  0  0  0
   -2.2500   -1.2990    0.0000 C   0  0  0  0  0  0  0  0  0  0  0  0
   -3.0000   -2.5981    0.0000 C   0  0  0  0  0  0  0  0  0  0  0  0
   -2.2500   -3.8971    0.0000 C   0  0  0  0  0  0  0  0  0  0  0  0
   -0.7500   -3.8971    0.0000 C   0  0  0  0  0  0  0  0  0  0  0  0
   -0.0000   -2.5981    0.0000 C   0  0  0  0  0  0  0  0  0  0  0  0
    2.2500    1.2990    0.0000 C   0  0  0  0  0  0  0  0  0  0  0  0
    3.7500    1.2990    0.0000 C   0  0  0  0  0  0  0  0  0  0  0  0
  1  2  2  0
  2  3  1  0
  3  4  2  0
  4  5  1  0
  5  6  1  0
  6  7  2  0
  7  8  1  0
  8  9  2  0
  9 10  1  0
 10 11  2  0
  5 12  1  0
 12 13  2  0
 13 14  1  0
 14 15  2  0
 15 16  1  0
 16 17  2  0
  4 18  1  0
 18 19  2  0
 19  1  1  0
 11  6  1  0
 17 12  1  0
M  END
>  <linear_selectivity>  (20) 
24

>  <denticity>  (20) 
1

>  <ligand_class>  (20) 
phosphine

$$$$
PPh3_110C_hexane
     RDKit          2D

 19 21  0  0  0  0  0  0  0  0999 V2000
    4.5000   -0.0000    0.0000 C   0  0  0  0  0  0  0  0  0  0  0  0
    3.7500   -1.2990    0.0000 C   0  0  0  0  0  0  0  0  0  0  0  0
    2.2500   -1.2990    0.0000 C   0  0  0  0  0  0  0  0  0  0  0  0
    1.5000   -0.0000    0.0000 C   0  0  0  0  0  0  0  0  0  0  0  0
    0.0000    0.0000    0.0000 P   0  0  0  0  0  0  0  0  0  0  0  0
   -0.7500    1.2990    0.0000 C   0  0  0  0  0  0  0  0  0  0  0  0
    0.0000    2.5981    0.0000 C   0  0  0  0  0  0  0  0  0  0  0  0
   -0.7500    3.8971    0.0000 C   0  0  0  0  0  0  0  0  0  0  0  0
   -2.2500    3.8971    0.0000 C   0  0  0  0  0  0  0  0  0  0  0  0
   -3.0000    2.5981    0.0000 C   0  0  0  0  0  0  0  0  0  0  0  0
   -2.2500    1.2990    0.0000 C   0  0  0  0  0  0  0  0  0  0  0  0
   -0.7500   -1.2990    0.0000 C   0  0  0  0  0  0  0  0  0  0  0  0
   -2.2500   -1.2990    0.0000 C   0  0  0  0  0  0  0  0  0  0  0  0
   -3.0000   -2.5981    0.0000 C   0  0  0  0  0  0  0  0  0  0  0  0
   -2.2500   -3.8971    0.0000 C   0  0  0  0  0  0  0  0  0  0  0  0
   -0.7500   -3.8971    0.0000 C   0  0  0  0  0  0  0  0  0  0  0  0
   -0.0000   -2.5981    0.0000 C   0  0  0  0  0  0  0  0  0  0  0  0
    2.2500    1.2990    0.0000 C   0  0  0  0  0  0  0  0  0  0  0  0
    3.7500    1.2990    0.0000 C   0  0  0  0  0  0  0  0  0  0  0  0
  1  2  2  0
  2  3  1  0
  3  4  2  0
  4  5  1  0
  5  6  1  0
  6  7  2  0
  7  8  1  0
  8  9  2  0
  9 10  1  0
 10 11  2  0
  5 12  1  0
 12 13  2  0
 13 14  1  0
 14 15  2  0
 15 16  1  0
 16 17  2  0
  4 18  1  0
 18 19  2  0
 19  1  1  0
 11  6  1  0
 17 12  1  0
M  END
>  <linear_selectivity>  (21) 
27

>  <denticity>  (21) 
1

>  <ligand_class>  (21) 
phosphine

$$$$
PPh3_110C_benzene
     RDKit          2D

 19 21  0  0  0  0  0  0  0  0999 V2000
    4.5000   -0.0000    0.0000 C   0  0  0  0  0  0  0  0  0  0  0  0
    3.7500   -1.2990    0.0000 C   0  0  0  0  0  0  0  0  0  0  0  0
    2.2500   -1.2990    0.0000 C   0  0  0  0  0  0  0  0  0  0  0  0
    1.5000   -0.0000    0.0000 C   0  0  0  0  0  0  0  0  0  0  0  0
    0.0000    0.0000    0.0000 P   0  0  0  0  0  0  0  0  0  0  0  0
   -0.7500    1.2990    0.0000 C   0  0  0  0  0  0  0  0  0  0  0  0
    0.0000    2.5981    0.0000 C   0  0  0  0  0  0  0  0  0  0  0  0
   -0.7500    3.8971    0.0000 C   0  0  0  0  0  0  0  0  0  0  0  0
   -2.2500    3.8971    0.0000 C   0  0  0  0  0  0  0  0  0  0  0  0
   -3.0000    2.5981    0.0000 C   0  0  0  0  0  0  0  0  0  0  0  0
   -2.2500    1.2990    0.0000 C   0  0  0  0  0  0  0  0  0  0  0  0
   -0.7500   -1.2990    0.0000 C   0  0  0  0  0  0  0  0  0  0  0  0
   -2.2500   -1.2990    0.0000 C   0  0  0  0  0  0  0  0  0  0  0  0
   -3.0000   -2.5981    0.0000 C   0  0  0  0  0  0  0  0  0  0  0  0
   -2.2500   -3.8971    0.0000 C   0  0  0  0  0  0  0  0  0  0  0  0
   -0.7500   -3.8971    0.0000 C   0  0  0  0  0  0  0  0  0  0  0  0
   -0.0000   -2.5981    0.0000 C   0  0  0  0  0  0  0  0  0  0  0  0
    2.2500    1.2990    0.0000 C   0  0  0  0  0  0  0  0  0  0  0  0
    3.7500    1.2990    0.0000 C   0  0  0  0  0  0  0  0  0  0  0  0
  1  2  2  0
  2  3  1  0
  3  4  2  0
  4  5  1  0
  5  6  1  0
  6  7  2  0
  7  8  1  0
  8  9  2  0
  9 10  1  0
 10 11  2  0
  5 12  1  0
 12 13  2  0
 13 14  1  0
 14 15  2  0
 15 16  1  0
 16 17  2  0
  4 18  1  0
 18 19  2  0
 19  1  1  0
 11  6  1  0
 17 12  1  0
M  END
>  <linear_selectivity>  (22) 
25

>  <denticity>  (22) 
1

>  <ligand_class>  (22) 
phosphine

$$$$
PPh3_120C_toluene
     RDKit          2D

 19 21  0  0  0  0  0  0  0  0999 V2000
    4.5000   -0.0000    0.0000 C   0  0  0  0  0  0  0  0  0  0  0  0
    3.7500   -1.2990    0.0000 C   0  0  0  0  0  0  0  0  0  0  0  0
    2.2500   -1.2990    0.0000 C   0  0  0  0  0  0  0  0  0  0  0  0
    1.5000   -0.0000    0.0000 C   0  0  0  0  0  0  0  0  0  0  0  0
    0.0000    0.0000    0.0000 P   0  0  0  0  0  0  0  0  0  0  0  0
   -0.7500    1.2990    0.0000 C   0  0  0  0  0  0  0  0  0  0  0  0
    0.0000    2.5981    0.0000 C   0  0  0  0  0  0  0  0  0  0  0  0
   -0.7500    3.8971    0.0000 C   0  0  0  0  0  0  0  0  0  0  0  0
   -2.2500    3.8971    0.0000 C   0  0  0  0  0  0  0  0  0  0  0  0
   -3.0000    2.5981    0.0000 C   0  0  0  0  0  0  0  0  0  0  0  0
   -2.2500    1.2990    0.0000 C   0  0  0  0  0  0  0  0  0  0  0  0
   -0.7500   -1.2990    0.0000 C   0  0  0  0  0  0  0  0  0  0  0  0
   -2.2500   -1.2990    0.0000 C   0  0  0  0  0  0  0  0  0  0  0  0
   -3.0000   -2.5981    0.0000 C   0  0  0  0  0  0  0  0  0  0  0  0
   -2.2500   -3.8971    0.0000 C   0  0  0  0  0  0  0  0  0  0  0  0
   -0.7500   -3.8971    0.0000 C   0  0  0  0  0  0  0  0  0  0  0  0
   -0.0000   -2.5981    0.0000 C   0  0  0  0  0  0  0  0  0  0  0  0
    2.2500    1.2990    0.0000 C   0  0  0  0  0  0  0  0  0  0  0  0
    3.7500    1.2990    0.0000 C   0  0  0  0  0  0  0  0  0  0  0  0
  1  2  2  0
  2  3  1  0
  3  4  2  0
  4  5  1  0
  5  6  1  0
  6  7  2  0
  7  8  1  0
  8  9  2  0
  9 10  1  0
 10 11  2  0
  5 12  1  0
 12 13  2  0
 13 14  1  0
 14 15  2  0
 15 16  1  0
 16 17  2  0
  4 18  1  0
 18 19  2  0
 19  1  1  0
 11  6  1  0
 17 12  1  0
M  END
>  <linear_selectivity>  (23) 
22

>  <denticity>  (23) 
1

>  <ligand_class>  (23) 
phosphine

$$$$
PPh3_120C_THF
     RDKit          2D

 19 21  0  0  0  0  0  0  0  0999 V2000
    4.5000   -0.0000    0.0000 C   0  0  0  0  0  0  0  0  0  0  0  0
    3.7500   -1.2990    0.0000 C   0  0  0  0  0  0  0  0  0  0  0  0
    2.2500   -1.2990    0.0000 C   0  0  0  0  0  0  0  0  0  0  0  0
    1.5000   -0.0000    0.0000 C   0  0  0  0  0  0  0  0  0  0  0  0
    0.0000    0.0000    0.0000 P   0  0  0  0  0  0  0  0  0  0  0  0
   -0.7500    1.2990    0.0000 C   0  0  0  0  0  0  0  0  0  0  0  0
    0.0000    2.5981    0.0000 C   0  0  0  0  0  0  0  0  0  0  0  0
   -0.7500    3.8971    0.0000 C   0  0  0  0  0  0  0  0  0  0  0  0
   -2.2500    3.8971    0.0000 C   0  0  0  0  0  0  0  0  0  0  0  0
   -3.0000    2.5981    0.0000 C   0  0  0  0  0  0  0  0  0  0  0  0
   -2.2500    1.2990    0.0000 C   0  0  0  0  0  0  0  0  0  0  0  0
   -0.7500   -1.2990    0.0000 C   0  0  0  0  0  0  0  0  0  0  0  0
   -2.2500   -1.2990    0.0000 C   0  0  0  0  0  0  0  0  0  0  0  0
   -3.0000   -2.5981    0.0000 C   0  0  0  0  0  0  0  0  0  0  0  0
   -2.2500   -3.8971    0.0000 C   0  0  0  0  0  0  0  0  0  0  0  0
   -0.7500   -3.8971    0.0000 C   0  0  0  0  0  0  0  0  0  0  0  0
   -0.0000   -2.5981    0.0000 C   0  0  0  0  0  0  0  0  0  0  0  0
    2.2500    1.2990    0.0000 C   0  0  0  0  0  0  0  0  0  0  0  0
    3.7500    1.2990    0.0000 C   0  0  0  0  0  0  0  0  0  0  0  0
  1  2  2  0
  2  3  1  0
  3  4  2  0
  4  5  1  0
  5  6  1  0
  6  7  2  0
  7  8  1  0
  8  9  2  0
  9 10  1  0
 10 11  2  0
  5 12  1  0
 12 13  2  0
 13 14  1  0
 14 15  2  0
 15 16  1  0
 16 17  2  0
  4 18  1  0
 18 19  2  0
 19  1  1  0
 11  6  1  0
 17 12  1  0
M  END
>  <linear_selectivity>  (24) 
22

>  <denticity>  (24) 
1

>  <ligand_class>  (24) 
phosphine

$$$$
PPh3_120C_dioxane
     RDKit          2D

 19 21  0  0  0  0  0  0  0  0999 V2000
    4.5000   -0.0000    0.0000 C   0  0  0  0  0  0  0  0  0  0  0  0
    3.7500   -1.2990    0.0000 C   0  0  0  0  0  0  0  0  0  0  0  0
    2.2500   -1.2990    0.0000 C   0  0  0  0  0  0  0  0  0  0  0  0
    1.5000   -0.0000    0.0000 C   0  0  0  0  0  0  0  0  0  0  0  0
    0.0000    0.0000    0.0000 P   0  0  0  0  0  0  0  0  0  0  0  0
   -0.7500    1.2990    0.0000 C   0  0  0  0  0  0  0  0  0  0  0  0
    0.0000    2.5981    0.0000 C   0  0  0  0  0  0  0  0  0  0  0  0
   -0.7500    3.8971    0.0000 C   0  0  0  0  0  0  0  0  0  0  0  0
   -2.2500    3.8971    0.0000 C   0  0  0  0  0  0  0  0  0  0  0  0
   -3.0000    2.5981    0.0000 C   0  0  0  0  0  0  0  0  0  0  0  0
   -2.2500    1.2990    0.0000 C   0  0  0  0  0  0  0  0  0  0  0  0
   -0.7500   -1.2990    0.0000 C   0  0  0  0  0  0  0  0  0  0  0  0
   -2.2500   -1.2990    0.0000 C   0  0  0  0  0  0  0  0  0  0  0  0
   -3.0000   -2.5981    0.0000 C   0  0  0  0  0  0  0  0  0  0  0  0
   -2.2500   -3.8971    0.0000 C   0  0  0  0  0  0  0  0  0  0  0  0
   -0.7500   -3.8971    0.0000 C   0  0  0  0  0  0  0  0  0  0  0  0
   -0.0000   -2.5981    0.0000 C   0  0  0  0  0  0  0  0  0  0  0  0
    2.2500    1.2990    0.0000 C   0  0  0  0  0  0  0  0  0  0  0  0
    3.7500    1.2990    0.0000 C   0  0  0  0  0  0  0  0  0  0  0  0
  1  2  2  0
  2  3  1  0
  3  4  2  0
  4  5  1  0
  5  6  1  0
  6  7  2  0
  7  8  1  0
  8  9  2  0
  9 10  1  0
 10 11  2  0
  5 12  1  0
 12 13  2  0
 13 14  1  0
 14 15  2  0
 15 16  1  0
 16 17  2  0
  4 18  1  0
 18 19  2  0
 19  1  1  0
 11  6  1  0
 17 12  1  0
M  END
>  <linear_selectivity>  (25) 
24

>  <denticity>  (25) 
1

>  <ligand_class>  (25) 
phosphine

$$$$
PPh3_120C_hexane
     RDKit          2D

 19 21  0  0  0  0  0  0  0  0999 V2000
    4.5000   -0.0000    0.0000 C   0  0  0  0  0  0  0  0  0  0  0  0
    3.7500   -1.2990    0.0000 C   0  0  0  0  0  0  0  0  0  0  0  0
    2.2500   -1.2990    0.0000 C   0  0  0  0  0  0  0  0  0  0  0  0
    1.5000   -0.0000    0.0000 C   0  0  0  0  0  0  0  0  0  0  0  0
    0.0000    0.0000    0.0000 P   0  0  0  0  0  0  0  0  0  0  0  0
   -0.7500    1.2990    0.0000 C   0  0  0  0  0  0  0  0  0  0  0  0
    0.0000    2.5981    0.0000 C   0  0  0  0  0  0  0  0  0  0  0  0
   -0.7500    3.8971    0.0000 C   0  0  0  0  0  0  0  0  0  0  0  0
   -2.2500    3.8971    0.0000 C   0  0  0  0  0  0  0  0  0  0  0  0
   -3.0000    2.5981    0.0000 C   0  0  0  0  0  0  0  0  0  0  0  0
   -2.2500    1.2990    0.0000 C   0  0  0  0  0  0  0  0  0  0  0  0
   -0.7500   -1.2990    0.0000 C   0  0  0  0  0  0  0  0  0  0  0  0
   -2.2500   -1.2990    0.0000 C   0  0  0  0  0  0  0  0  0  0  0  0
   -3.0000   -2.5981    0.0000 C   0  0  0  0  0  0  0  0  0  0  0  0
   -2.2500   -3.8971    0.0000 C   0  0  0  0  0  0  0  0  0  0  0  0
   -0.7500   -3.8971    0.0000 C   0  0  0  0  0  0  0  0  0  0  0  0
   -0.0000   -2.5981    0.0000 C   0  0  0  0  0  0  0  0  0  0  0  0
    2.2500    1.2990    0.0000 C   0  0  0  0  0  0  0  0  0  0  0  0
    3.7500    1.2990    0.0000 C   0  0  0  0  0  0  0  0  0  0  0  0
  1  2  2  0
  2  3  1  0
  3  4  2  0
  4  5  1  0
  5  6  1  0
  6  7  2  0
  7  8  1  0
  8  9  2  0
  9 10  1  0
 10 11  2  0
  5 12  1  0
 12 13  2  0
 13 14  1  0
 14 15  2  0
 15 16  1  0
 16 17  2  0
  4 18  1  0
 18 19  2  0
 19  1  1  0
 11  6  1  0
 17 12  1  0
M  END
>  <linear_selectivity>  (26) 
22

>  <denticity>  (26) 
1

>  <ligand_class>  (26) 
phosphine

$$$$
PPh3_120C_benzene
     RDKit          2D

 19 21  0  0  0  0  0  0  0  0999 V2000
    4.5000   -0.0000    0.0000 C   0  0  0  0  0  0  0  0  0  0  0  0
    3.7500   -1.2990    0.0000 C   0  0  0  0  0  0  0  0  0  0  0  0
    2.2500   -1.2990    0.0000 C   0  0  0  0  0  0  0  0  0  0  0  0
    1.5000   -0.0000    0.0000 C   0  0  0  0  0  0  0  0  0  0  0  0
    0.0000    0.0000    0.0000 P   0  0  0  0  0  0  0  0  0  0  0  0
   -0.7500    1.2990    0.0000 C   0  0  0  0  0  0  0  0  0  0  0  0
    0.0000    2.5981    0.0000 C   0  0  0  0  0  0  0  0  0  0  0  0
   -0.7500    3.8971    0.0000 C   0  0  0  0  0  0  0  0  0  0  0  0
   -2.2500    3.8971    0.0000 C   0  0  0  0  0  0  0  0  0  0  0  0
   -3.0000    2.5981    0.0000 C   0  0  0  0  0  0  0  0  0  0  0  0
   -2.2500    1.2990    0.0000 C   0  0  0  0  0  0  0  0  0  0  0  0
   -0.7500   -1.2990    0.0000 C   0  0  0  0  0  0  0  0  0  0  0  0
   -2.2500   -1.2990    0.0000 C   0  0  0  0  0  0  0  0  0  0  0  0
   -3.0000   -2.5981    0.0000 C   0  0  0  0  0  0  0  0  0  0  0  0
   -2.2500   -3.8971    0.0000 C   0  0  0  0  0  0  0  0  0  0  0  0
   -0.7500   -3.8971    0.0000 C   0  0  0  0  0  0  0  0  0  0  0  0
   -0.0000   -2.5981    0.0000 C   0  0  0  0  0  0  0  0  0  0  0  0
    2.2500    1.2990    0.0000 C   0  0  0  0  0  0  0  0  0  0  0  0
    3.7500    1.2990    0.0000 C   0  0  0  0  0  0  0  0  0  0  0  0
  1  2  2  0
  2  3  1  0
  3  4  2  0
  4  5  1  0
  5  6  1  0
  6  7  2  0
  7  8  1  0
  8  9  2  0
  9 10  1  0
 10 11  2  0
  5 12  1  0
 12 13  2  0
 13 14  1  0
 14 15  2  0
 15 16  1  0
 16 17  2  0
  4 18  1  0
 18 19  2  0
 19  1  1  0
 11  6  1  0
 17 12  1  0
M  END
>  <linear_selectivity>  (27) 
24

>  <denticity>  (27) 
1

>  <ligand_class>  (27) 
phosphine

$$$$
PPh3_130C_toluene
     RDKit          2D

 19 21  0  0  0  0  0  0  0  0999 V2000
    4.5000   -0.0000    0.0000 C   0  0  0  0  0  0  0  0  0  0  0  0
    3.7500   -1.2990    0.0000 C   0  0  0  0  0  0  0  0  0  0  0  0
    2.2500   -1.2990    0.0000 C   0  0  0  0  0  0  0  0  0  0  0  0
    1.5000   -0.0000    0.0000 C   0  0  0  0  0  0  0  0  0  0  0  0
    0.0000    0.0000    0.0000 P   0  0  0  0  0  0  0  0  0  0  0  0
   -0.7500    1.2990    0.0000 C   0  0  0  0  0  0  0  0  0  0  0  0
    0.0000    2.5981    0.0000 C   0  0  0  0  0  0  0  0  0  0  0  0
   -0.7500    3.8971    0.0000 C   0  0  0  0  0  0  0  0  0  0  0  0
   -2.2500    3.8971    0.0000 C   0  0  0  0  0  0  0  0  0  0  0  0
   -3.0000    2.5981    0.0000 C   0  0  0  0  0  0  0  0  0  0  0  0
   -2.2500    1.2990    0.0000 C   0  0  0  0  0  0  0  0  0  0  0  0
   -0.7500   -1.2990    0.0000 C   0  0  0  0  0  0  0  0  0  0  0  0
   -2.2500   -1.2990    0.0000 C   0  0  0  0  0  0  0  0  0  0  0  0
   -3.0000   -2.5981    0.0000 C   0  0  0  0  0  0  0  0  0  0  0  0
   -2.2500   -3.8971    0.0000 C   0  0  0  0  0  0  0  0  0  0  0  0
   -0.7500   -3.8971    0.0000 C   0  0  0  0  0  0  0  0  0  0  0  0
   -0.0000   -2.5981    0.0000 C   0  0  0  0  0  0  0  0  0  0  0  0
    2.2500    1.2990    0.0000 C   0  0  0  0  0  0  0  0  0  0  0  0
    3.7500    1.2990    0.0000 C   0  0  0  0  0  0  0  0  0  0  0  0
  1  2  2  0
  2  3  1  0
  3  4  2  0
  4  5  1  0
  5  6  1  0
  6  7  2  0
  7  8  1  0
  8  9  2  0
  9 10  1  0
 10 11  2  0
  5 12  1  0
 12 13  2  0
 13 14  1  0
 14 15  2  0
 15 16  1  0
 16 17  2  0
  4 18  1  0
 18 19  2  0
 19  1  1  0
 11  6  1  0
 17 12  1  0
M  END
>  <linear_selectivity>  (28) 
23

>  <denticity>  (28) 
1

>  <ligand_class>  (28) 
phosphine

$$$$
PPh3_130C_THF
     RDKit          2D

 19 21  0  0  0  0  0  0  0  0999 V2000
    4.5000   -0.0000    0.0000 C   0  0  0  0  0  0  0  0  0  0  0  0
    3.7500   -1.2990    0.0000 C   0  0  0  0  0  0  0  0  0  0  0  0
    2.2500   -1.2990    0.0000 C   0  0  0  0  0  0  0  0  0  0  0  0
    1.5000   -0.0000    0.0000 C   0  0  0  0  0  0  0  0  0  0  0  0
    0.0000    0.0000    0.0000 P   0  0  0  0  0  0  0  0  0  0  0  0
   -0.7500    1.2990    0.0000 C   0  0  0  0  0  0  0  0  0  0  0  0
    0.0000    2.5981    0.0000 C   0  0  0  0  0  0  0  0  0  0  0  0
   -0.7500    3.8971    0.0000 C   0  0  0  0  0  0  0  0  0  0  0  0
   -2.2500    3.8971    0.0000 C   0  0  0  0  0  0  0  0  0  0  0  0
   -3.0000    2.5981    0.0000 C   0  0  0  0  0  0  0  0  0  0  0  0
   -2.2500    1.2990    0.0000 C   0  0  0  0  0  0  0  0  0  0  0  0
   -0.7500   -1.2990    0.0000 C   0  0  0  0  0  0  0  0  0  0  0  0
   -2.2500   -1.2990    0.0000 C   0  0  0  0  0  0  0  0  0  0  0  0
   -3.0000   -2.5981    0.0000 C   0  0  0  0  0  0  0  0  0  0  0  0
   -2.2500   -3.8971    0.0000 C   0  0  0  0  0  0  0  0  0  0  0  0
   -0.7500   -3.8971    0.0000 C   0  0  0  0  0  0  0  0  0  0  0  0
   -0.0000   -2.5981    0.0000 C   0  0  0  0  0  0  0  0  0  0  0  0
    2.2500    1.2990    0.0000 C   0  0  0  0  0  0  0  0  0  0  0  0
    3.7500    1.2990    0.0000 C   0  0  0  0  0  0  0  0  0  0  0  0
  1  2  2  0
  2  3  1  0
  3  4  2  0
  4  5  1  0
  5  6  1  0
  6  7  2  0
  7  8  1  0
  8  9  2  0
  9 10  1  0
 10 11  2  0
  5 12  1  0
 12 13  2  0
 13 14  1  0
 14 15  2  0
 15 16  1  0
 16 17  2  0
  4 18  1  0
 18 19  2  0
 19  1  1  0
 11  6  1  0
 17 12  1  0
M  END
>  <linear_selectivity>  (29) 
20

>  <denticity>  (29) 
1

>  <ligand_class>  (29) 
phosphine

$$$$
PPh3_130C_dioxane
     RDKit          2D

 19 21  0  0  0  0  0  0  0  0999 V2000
    4.5000   -0.0000    0.0000 C   0  0  0  0  0  0  0  0  0  0  0  0
    3.7500   -1.2990    0.0000 C   0  0  0  0  0  0  0  0  0  0  0  0
    2.2500   -1.2990    0.0000 C   0  0  0  0  0  0  0  0  0  0  0  0
    1.5000   -0.0000    0.0000 C   0  0  0  0  0  0  0  0  0  0  0  0
    0.0000    0.0000    0.0000 P   0  0  0  0  0  0  0  0  0  0  0  0
   -0.7500    1.2990    0.0000 C   0  0  0  0  0  0  0  0  0  0  0  0
    0.0000    2.5981    0.0000 C   0  0  0  0  0  0  0  0  0  0  0  0
   -0.7500    3.8971    0.0000 C   0  0  0  0  0  0  0  0  0  0  0  0
   -2.2500    3.8971    0.0000 C   0  0  0  0  0  0  0  0  0  0  0  0
   -3.0000    2.5981    0.0000 C   0  0  0  0  0  0  0  0  0  0  0  0
   -2.2500    1.2990    0.0000 C   0  0  0  0  0  0  0  0  0  0  0  0
   -0.7500   -1.2990    0.0000 C   0  0  0  0  0  0  0  0  0  0  0  0
   -2.2500   -1.2990    0.0000 C   0  0  0  0  0  0  0  0  0  0  0  0
   -3.0000   -2.5981    0.0000 C   0  0  0  0  0  0  0  0  0  0  0  0
   -2.2500   -3.8971    0.0000 C   0  0  0  0  0  0  0  0  0  0  0  0
   -0.7500   -3.8971    0.0000 C   0  0  0  0  0  0  0  0  0  0  0  0
   -0.0000   -2.5981    0.0000 C   0  0  0  0  0  0  0  0  0  0  0  0
    2.2500    1.2990    0.0000 C   0  0  0  0  0  0  0  0  0  0  0  0
    3.7500    1.2990    0.0000 C   0  0  0  0  0  0  0  0  0  0  0  0
  1  2  2  0
  2  3  1  0
  3  4  2  0
  4  5  1  0
  5  6  1  0
  6  7  2  0
  7  8  1  0
  8  9  2  0
  9 10  1  0
 10 11  2  0
  5 12  1  0
 12 13  2  0
 13 14  1  0
 14 15  2  0
 15 16  1  0
 16 17  2  0
  4 18  1  0
 18 19  2  0
 19  1  1  0
 11  6  1  0
 17 12  1  0
M  END
>  <linear_selectivity>  (30) 
19

>  <denticity>  (30) 
1

>  <ligand_class>  (30) 
phosphine

$$$$
PPh3_130C_hexane
     RDKit          2D

 19 21  0  0  0  0  0  0  0  0999 V2000
    4.5000   -0.0000    0.0000 C   0  0  0  0  0  0  0  0  0  0  0  0
    3.7500   -1.2990    0.0000 C   0  0  0  0  0  0  0  0  0  0  0  0
    2.2500   -1.2990    0.0000 C   0  0  0  0  0  0  0  0  0  0  0  0
    1.5000   -0.0000    0.0000 C   0  0  0  0  0  0  0  0  0  0  0  0
    0.0000    0.0000    0.0000 P   0  0  0  0  0  0  0  0  0  0  0  0
   -0.7500    1.2990    0.0000 C   0  0  0  0  0  0  0  0  0  0  0  0
    0.0000    2.5981    0.0000 C   0  0  0  0  0  0  0  0  0  0  0  0
   -0.7500    3.8971    0.0000 C   0  0  0  0  0  0  0  0  0  0  0  0
   -2.2500    3.8971    0.0000 C   0  0  0  0  0  0  0  0  0  0  0  0
   -3.0000    2.5981    0.0000 C   0  0  0  0  0  0  0  0  0  0  0  0
   -2.2500    1.2990    0.0000 C   0  0  0  0  0  0  0  0  0  0  0  0
   -0.7500   -1.2990    0.0000 C   0  0  0  0  0  0  0  0  0  0  0  0
   -2.2500   -1.2990    0.0000 C   0  0  0  0  0  0  0  0  0  0  0  0
   -3.0000   -2.5981    0.0000 C   0  0  0  0  0  0  0  0  0  0  0  0
   -2.2500   -3.8971    0.0000 C   0  0  0  0  0  0  0  0  0  0  0  0
   -0.7500   -3.8971    0.0000 C   0  0  0  0  0  0  0  0  0  0  0  0
   -0.0000   -2.5981    0.0000 C   0  0  0  0  0  0  0  0  0  0  0  0
    2.2500    1.2990    0.0000 C   0  0  0  0  0  0  0  0  0  0  0  0
    3.7500    1.2990    0.0000 C   0  0  0  0  0  0  0  0  0  0  0  0
  1  2  2  0
  2  3  1  0
  3  4  2  0
  4  5  1  0
  5  6  1  0
  6  7  2  0
  7  8  1  0
  8  9  2  0
  9 10  1  0
 10 11  2  0
  5 12  1  0
 12 13  2  0
 13 14  1  0
 14 15  2  0
 15 16  1  0
 16 17  2  0
  4 18  1  0
 18 19  2  0
 19  1  1  0
 11  6  1  0
 17 12  1  0
M  END
>  <linear_selectivity>  (31) 
22

>  <denticity>  (31) 
1

>  <ligand_class>  (31) 
phosphine

$$$$
PPh3_130C_benzene
     RDKit          2D

 19 21  0  0  0  0  0  0  0  0999 V2000
    4.5000   -0.0000    0.0000 C   0  0  0  0  0  0  0  0  0  0  0  0
    3.7500   -1.2990    0.0000 C   0  0  0  0  0  0  0  0  0  0  0  0
    2.2500   -1.2990    0.0000 C   0  0  0  0  0  0  0  0  0  0  0  0
    1.5000   -0.0000    0.0000 C   0  0  0  0  0  0  0  0  0  0  0  0
    0.0000    0.0000    0.0000 P   0  0  0  0  0  0  0  0  0  0  0  0
   -0.7500    1.2990    0.0000 C   0  0  0  0  0  0  0  0  0  0  0  0
    0.0000    2.5981    0.0000 C   0  0  0  0  0  0  0  0  0  0  0  0
   -0.7500    3.8971    0.0000 C   0  0  0  0  0  0  0  0  0  0  0  0
   -2.2500    3.8971    0.0000 C   0  0  0  0  0  0  0  0  0  0  0  0
   -3.0000    2.5981    0.0000 C   0  0  0  0  0  0  0  0  0  0  0  0
   -2.2500    1.2990    0.0000 C   0  0  0  0  0  0  0  0  0  0  0  0
   -0.7500   -1.2990    0.0000 C   0  0  0  0  0  0  0  0  0  0  0  0
   -2.2500   -1.2990    0.0000 C   0  0  0  0  0  0  0  0  0  0  0  0
   -3.0000   -2.5981    0.0000 C   0  0  0  0  0  0  0  0  0  0  0  0
   -2.2500   -3.8971    0.0000 C   0  0  0  0  0  0  0  0  0  0  0  0
   -0.7500   -3.8971    0.0000 C   0  0  0  0  0  0  0  0  0  0  0  0
   -0.0000   -2.5981    0.0000 C   0  0  0  0  0  0  0  0  0  0  0  0
    2.2500    1.2990    0.0000 C   0  0  0  0  0  0  0  0  0  0  0  0
    3.7500    1.2990    0.0000 C   0  0  0  0  0  0  0  0  0  0  0  0
  1  2  2  0
  2  3  1  0
  3  4  2  0
  4  5  1  0
  5  6  1  0
  6  7  2  0
  7  8  1  0
  8  9  2  0
  9 10  1  0
 10 11  2  0
  5 12  1  0
 12 13  2  0
 13 14  1  0
 14 15  2  0
 15 16  1  0
 16 17  2  0
  4 18  1  0
 18 19  2  0
 19  1  1  0
 11  6  1  0
 17 12  1  0
M  END
>  <linear_selectivity>  (32) 
23

>  <denticity>  (32) 
1

>  <ligand_class>  (32) 
phosphine

$$$$
P(o-Tol)3
     RDKit          2D

 22 24  0  0  0  0  0  0  0  0999 V2000
    4.5000   -2.5981    0.0000 C   0  0  0  0  0  0  0  0  0  0  0  0
    3.0000   -2.5981    0.0000 C   0  0  0  0  0  0  0  0  0  0  0  0
    2.2500   -3.8971    0.0000 C   0  0  0  0  0  0  0  0  0  0  0  0
    0.7500   -3.8971    0.0000 C   0  0  0  0  0  0  0  0  0  0  0  0
   -0.0000   -2.5981    0.0000 C   0  0  0  0  0  0  0  0  0  0  0  0
    0.7500   -1.2990    0.0000 C   0  0  0  0  0  0  0  0  0  0  0  0
    0.0000    0.0000    0.0000 P   0  0  0  0  0  0  0  0  0  0  0  0
    0.7500    1.2990    0.0000 C   0  0  0  0  0  0  0  0  0  0  0  0
    2.2500    1.2990    0.0000 C   0  0  0  0  0  0  0  0  0  0  0  0
    3.0000    2.5981    0.0000 C   0  0  0  0  0  0  0  0  0  0  0  0
    2.2500    3.8971    0.0000 C   0  0  0  0  0  0  0  0  0  0  0  0
    0.7500    3.8971    0.0000 C   0  0  0  0  0  0  0  0  0  0  0  0
    0.0000    5.1962    0.0000 C   0  0  0  0  0  0  0  0  0  0  0  0
    0.0000    2.5981    0.0000 C   0  0  0  0  0  0  0  0  0  0  0  0
   -1.5000    0.0000    0.0000 C   0  0  0  0  0  0  0  0  0  0  0  0
   -2.2500    1.2990    0.0000 C   0  0  0  0  0  0  0  0  0  0  0  0
   -3.7500    1.2990    0.0000 C   0  0  0  0  0  0  0  0  0  0  0  0
   -4.5000    0.0000    0.0000 C   0  0  0  0  0  0  0  0  0  0  0  0
   -3.7500   -1.2990    0.0000 C   0  0  0  0  0  0  0  0  0  0  0  0
   -4.5000   -2.5981    0.0000 C   0  0  0  0  0  0  0  0  0  0  0  0
   -2.2500   -1.2990    0.0000 C   0  0  0  0  0  0  0  0  0  0  0  0
    2.2500   -1.2990    0.0000 C   0  0  0  0  0  0  0  0  0  0  0  0
  1  2  1  0
  2  3  2  0
  3  4  1  0
  4  5  2  0
  5  6  1  0
  6  7  1  0
  7  8  1  0
  8  9  2  0
  9 10  1  0
 10 11  2  0
 11 12  1  0
 12 13  1  0
 12 14  2  0
  7 15  1  0
 15 16  2  0
 16 17  1  0
 17 18  2  0
 18 19  1  0
 19 20  1  0
 19 21  2  0
  6 22  2  0
 22  2  1  0
 14  8  1  0
 21 15  1  0
M  END
>  <linear_selectivity>  (33) 
42

>  <denticity>  (33) 
1

>  <ligand_class>  (33) 
phosphine

$$$$
P(o-Tol)3_70C_toluene
     RDKit          2D

 22 24  0  0  0  0  0  0  0  0999 V2000
    4.5000   -2.5981    0.0000 C   0  0  0  0  0  0  0  0  0  0  0  0
    3.0000   -2.5981    0.0000 C   0  0  0  0  0  0  0  0  0  0  0  0
    2.2500   -3.8971    0.0000 C   0  0  0  0  0  0  0  0  0  0  0  0
    0.7500   -3.8971    0.0000 C   0  0  0  0  0  0  0  0  0  0  0  0
   -0.0000   -2.5981    0.0000 C   0  0  0  0  0  0  0  0  0  0  0  0
    0.7500   -1.2990    0.0000 C   0  0  0  0  0  0  0  0  0  0  0  0
    0.0000    0.0000    0.0000 P   0  0  0  0  0  0  0  0  0  0  0  0
    0.7500    1.2990    0.0000 C   0  0  0  0  0  0  0  0  0  0  0  0
    2.2500    1.2990    0.0000 C   0  0  0  0  0  0  0  0  0  0  0  0
    3.0000    2.5981    0.0000 C   0  0  0  0  0  0  0  0  0  0  0  0
    2.2500    3.8971    0.0000 C   0  0  0  0  0  0  0  0  0  0  0  0
    0.7500    3.8971    0.0000 C   0  0  0  0  0  0  0  0  0  0  0  0
    0.0000    5.1962    0.0000 C   0  0  0  0  0  0  0  0  0  0  0  0
    0.0000    2.5981    0.0000 C   0  0  0  0  0  0  0  0  0  0  0  0
   -1.5000    0.0000    0.0000 C   0  0  0  0  0  0  0  0  0  0  0  0
   -2.2500    1.2990    0.0000 C   0  0  0  0  0  0  0  0  0  0  0  0
   -3.7500    1.2990    0.0000 C   0  0  0  0  0  0  0  0  0  0  0  0
   -4.5000    0.0000    0.0000 C   0  0  0  0  0  0  0  0  0  0  0  0
   -3.7500   -1.2990    0.0000 C   0  0  0  0  0  0  0  0  0  0  0  0
   -4.5000   -2.5981    0.0000 C   0  0  0  0  0  0  0  0  0  0  0  0
   -2.2500   -1.2990    0.0000 C   0  0  0  0  0  0  0  0  0  0  0  0
    2.2500   -1.2990    0.0000 C   0  0  0  0  0  0  0  0  0  0  0  0
  1  2  1  0
  2  3  2  0
  3  4  1  0
  4  5  2  0
  5  6  1  0
  6  7  1  0
  7  8  1  0
  8  9  2  0
  9 10  1  0
 10 11  2  0
 11 12  1  0
 12 13  1  0
 12 14  2  0
  7 15  1  0
 15 16  2  0
 16 17  1  0
 17 18  2  0
 18 19  1  0
 19 20  1  0
 19 21  2  0
  6 22  2  0
 22  2  1  0
 14  8  1  0
 21 15  1  0
M  END
>  <linear_selectivity>  (34) 
46

>  <denticity>  (34) 
1

>  <ligand_class>  (34) 
phosphine

$$$$
P(o-Tol)3_70C_THF
     RDKit          2D

 22 24  0  0  0  0  0  0  0  0999 V2000
    4.5000   -2.5981    0.0000 C   0  0  0  0  0  0  0  0  0  0  0  0
    3.0000   -2.5981    0.0000 C   0  0  0  0  0  0  0  0  0  0  0  0
    2.2500   -3.8971    0.0000 C   0  0  0  0  0  0  0  0  0  0  0  0
    0.7500   -3.8971    0.0000 C   0  0  0  0  0  0  0  0  0  0  0  0
   -0.0000   -2.5981    0.0000 C   0  0  0  0  0  0  0  0  0  0  0  0
    0.7500   -1.2990    0.0000 C   0  0  0  0  0  0  0  0  0  0  0  0
    0.0000    0.0000    0.0000 P   0  0  0  0  0  0  0  0  0  0  0  0
    0.7500    1.2990    0.0000 C   0  0  0  0  0  0  0  0  0  0  0  0
    2.2500    1.2990    0.0000 C   0  0  0  0  0  0  0  0  0  0  0  0
    3.0000    2.5981    0.0000 C   0  0  0  0  0  0  0  0  0  0  0  0
    2.2500    3.8971    0.0000 C   0  0  0  0  0  0  0  0  0  0  0  0
    0.7500    3.8971    0.0000 C   0  0  0  0  0  0  0  0  0  0  0  0
    0.0000    5.1962    0.0000 C   0  0  0  0  0  0  0  0  0  0  0  0
    0.0000    2.5981    0.0000 C   0  0  0  0  0  0  0  0  0  0  0  0
   -1.5000    0.0000    0.0000 C   0  0  0  0  0  0  0  0  0  0  0  0
   -2.2500    1.2990    0.0000 C   0  0  0  0  0  0  0  0  0  0  0  0
   -3.7500    1.2990    0.0000 C   0  0  0  0  0  0  0  0  0  0  0  0
   -4.5000    0.0000    0.0000 C   0  0  0  0  0  0  0  0  0  0  0  0
   -3.7500   -1.2990    0.0000 C   0  0  0  0  0  0  0  0  0  0  0  0
   -4.5000   -2.5981    0.0000 C   0  0  0  0  0  0  0  0  0  0  0  0
   -2.2500   -1.2990    0.0000 C   0  0  0  0  0  0  0  0  0  0  0  0
    2.2500   -1.2990    0.0000 C   0  0  0  0  0  0  0  0  0  0  0  0
  1  2  1  0
  2  3  2  0
  3  4  1  0
  4  5  2  0
  5  6  1  0
  6  7  1  0
  7  8  1  0
  8  9  2  0
  9 10  1  0
 10 11  2  0
 11 12  1  0
 12 13  1  0
 12 14  2  0
  7 15  1  0
 15 16  2  0
 16 17  1  0
 17 18  2  0
 18 19  1  0
 19 20  1  0
 19 21  2  0
  6 22  2  0
 22  2  1  0
 14  8  1  0
 21 15  1  0
M  END
>  <linear_selectivity>  (35) 
42

>  <denticity>  (35) 
1

>  <ligand_class>  (35) 
phosphine

$$$$
P(o-Tol)3_70C_hexane
     RDKit          2D

 22 24  0  0  0  0  0  0  0  0999 V2000
    4.5000   -2.5981    0.0000 C   0  0  0  0  0  0  0  0  0  0  0  0
    3.0000   -2.5981    0.0000 C   0  0  0  0  0  0  0  0  0  0  0  0
    2.2500   -3.8971    0.0000 C   0  0  0  0  0  0  0  0  0  0  0  0
    0.7500   -3.8971    0.0000 C   0  0  0  0  0  0  0  0  0  0  0  0
   -0.0000   -2.5981    0.0000 C   0  0  0  0  0  0  0  0  0  0  0  0
    0.7500   -1.2990    0.0000 C   0  0  0  0  0  0  0  0  0  0  0  0
    0.0000    0.0000    0.0000 P   0  0  0  0  0  0  0  0  0  0  0  0
    0.7500    1.2990    0.0000 C   0  0  0  0  0  0  0  0  0  0  0  0
    2.2500    1.2990    0.0000 C   0  0  0  0  0  0  0  0  0  0  0  0
    3.0000    2.5981    0.0000 C   0  0  0  0  0  0  0  0  0  0  0  0
    2.2500    3.8971    0.0000 C   0  0  0  0  0  0  0  0  0  0  0  0
    0.7500    3.8971    0.0000 C   0  0  0  0  0  0  0  0  0  0  0  0
    0.0000    5.1962    0.0000 C   0  0  0  0  0  0  0  0  0  0  0  0
    0.0000    2.5981    0.0000 C   0  0  0  0  0  0  0  0  0  0  0  0
   -1.5000    0.0000    0.0000 C   0  0  0  0  0  0  0  0  0  0  0  0
   -2.2500    1.2990    0.0000 C   0  0  0  0  0  0  0  0  0  0  0  0
   -3.7500    1.2990    0.0000 C   0  0  0  0  0  0  0  0  0  0  0  0
   -4.5000    0.0000    0.0000 C   0  0  0  0  0  0  0  0  0  0  0  0
   -3.7500   -1.2990    0.0000 C   0  0  0  0  0  0  0  0  0  0  0  0
   -4.5000   -2.5981    0.0000 C   0  0  0  0  0  0  0  0  0  0  0  0
   -2.2500   -1.2990    0.0000 C   0  0  0  0  0  0  0  0  0  0  0  0
    2.2500   -1.2990    0.0000 C   0  0  0  0  0  0  0  0  0  0  0  0
  1  2  1  0
  2  3  2  0
  3  4  1  0
  4  5  2  0
  5  6  1  0
  6  7  1  0
  7  8  1  0
  8  9  2  0
  9 10  1  0
 10 11  2  0
 11 12  1  0
 12 13  1  0
 12 14  2  0
  7 15  1  0
 15 16  2  0
 16 17  1  0
 17 18  2  0
 18 19  1  0
 19 20  1  0
 19 21  2  0
  6 22  2  0
 22  2  1  0
 14  8  1  0
 21 15  1  0
M  END
>  <linear_selectivity>  (36) 
50

>  <denticity>  (36) 
1

>  <ligand_class>  (36) 
phosphine

$$$$
P(o-Tol)3_70C_benzene
     RDKit          2D

 22 24  0  0  0  0  0  0  0  0999 V2000
    4.5000   -2.5981    0.0000 C   0  0  0  0  0  0  0  0  0  0  0  0
    3.0000   -2.5981    0.0000 C   0  0  0  0  0  0  0  0  0  0  0  0
    2.2500   -3.8971    0.0000 C   0  0  0  0  0  0  0  0  0  0  0  0
    0.7500   -3.8971    0.0000 C   0  0  0  0  0  0  0  0  0  0  0  0
   -0.0000   -2.5981    0.0000 C   0  0  0  0  0  0  0  0  0  0  0  0
    0.7500   -1.2990    0.0000 C   0  0  0  0  0  0  0  0  0  0  0  0
    0.0000    0.0000    0.0000 P   0  0  0  0  0  0  0  0  0  0  0  0
    0.7500    1.2990    0.0000 C   0  0  0  0  0  0  0  0  0  0  0  0
    2.2500    1.2990    0.0000 C   0  0  0  0  0  0  0  0  0  0  0  0
    3.0000    2.5981    0.0000 C   0  0  0  0  0  0  0  0  0  0  0  0
    2.2500    3.8971    0.0000 C   0  0  0  0  0  0  0  0  0  0  0  0
    0.7500    3.8971    0.0000 C   0  0  0  0  0  0  0  0  0  0  0  0
    0.0000    5.1962    0.0000 C   0  0  0  0  0  0  0  0  0  0  0  0
    0.0000    2.5981    0.0000 C   0  0  0  0  0  0  0  0  0  0  0  0
   -1.5000    0.0000    0.0000 C   0  0  0  0  0  0  0  0  0  0  0  0
   -2.2500    1.2990    0.0000 C   0  0  0  0  0  0  0  0  0  0  0  0
   -3.7500    1.2990    0.0000 C   0  0  0  0  0  0  0  0  0  0  0  0
   -4.5000    0.0000    0.0000 C   0  0  0  0  0  0  0  0  0  0  0  0
   -3.7500   -1.2990    0.0000 C   0  0  0  0  0  0  0  0  0  0  0  0
   -4.5000   -2.5981    0.0000 C   0  0  0  0  0  0  0  0  0  0  0  0
   -2.2500   -1.2990    0.0000 C   0  0  0  0  0  0  0  0  0  0  0  0
    2.2500   -1.2990    0.0000 C   0  0  0  0  0  0  0  0  0  0  0  0
  1  2  1  0
  2  3  2  0
  3  4  1  0
  4  5  2  0
  5  6  1  0
  6  7  1  0
  7  8  1  0
  8  9  2  0
  9 10  1  0
 10 11  2  0
 11 12  1  0
 12 13  1  0
 12 14  2  0
  7 15  1  0
 15 16  2  0
 16 17  1  0
 17 18  2  0
 18 19  1  0
 19 20  1  0
 19 21  2  0
  6 22  2  0
 22  2  1  0
 14  8  1  0
 21 15  1  0
M  END
>  <linear_selectivity>  (37) 
43

>  <denticity>  (37) 
1

>  <ligand_class>  (37) 
phosphine

$$$$
P(o-Tol)3_80C_toluene
     RDKit          2D

 22 24  0  0  0  0  0  0  0  0999 V2000
    4.5000   -2.5981    0.0000 C   0  0  0  0  0  0  0  0  0  0  0  0
    3.0000   -2.5981    0.0000 C   0  0  0  0  0  0  0  0  0  0  0  0
    2.2500   -3.8971    0.0000 C   0  0  0  0  0  0  0  0  0  0  0  0
    0.7500   -3.8971    0.0000 C   0  0  0  0  0  0  0  0  0  0  0  0
   -0.0000   -2.5981    0.0000 C   0  0  0  0  0  0  0  0  0  0  0  0
    0.7500   -1.2990    0.0000 C   0  0  0  0  0  0  0  0  0  0  0  0
    0.0000    0.0000    0.0000 P   0  0  0  0  0  0  0  0  0  0  0  0
    0.7500    1.2990    0.0000 C   0  0  0  0  0  0  0  0  0  0  0  0
    2.2500    1.2990    0.0000 C   0  0  0  0  0  0  0  0  0  0  0  0
    3.0000    2.5981    0.0000 C   0  0  0  0  0  0  0  0  0  0  0  0
    2.2500    3.8971    0.0000 C   0  0  0  0  0  0  0  0  0  0  0  0
    0.7500    3.8971    0.0000 C   0  0  0  0  0  0  0  0  0  0  0  0
    0.0000    5.1962    0.0000 C   0  0  0  0  0  0  0  0  0  0  0  0
    0.0000    2.5981    0.0000 C   0  0  0  0  0  0  0  0  0  0  0  0
   -1.5000    0.0000    0.0000 C   0  0  0  0  0  0  0  0  0  0  0  0
   -2.2500    1.2990    0.0000 C   0  0  0  0  0  0  0  0  0  0  0  0
   -3.7500    1.2990    0.0000 C   0  0  0  0  0  0  0  0  0  0  0  0
   -4.5000    0.0000    0.0000 C   0  0  0  0  0  0  0  0  0  0  0  0
   -3.7500   -1.2990    0.0000 C   0  0  0  0  0  0  0  0  0  0  0  0
   -4.5000   -2.5981    0.0000 C   0  0  0  0  0  0  0  0  0  0  0  0
   -2.2500   -1.2990    0.0000 C   0  0  0  0  0  0  0  0  0  0  0  0
    2.2500   -1.2990    0.0000 C   0  0  0  0  0  0  0  0  0  0  0  0
  1  2  1  0
  2  3  2  0
  3  4  1  0
  4  5  2  0
  5  6  1  0
  6  7  1  0
  7  8  1  0
  8  9  2  0
  9 10  1  0
 10 11  2  0
 11 12  1  0
 12 13  1  0
 12 14  2  0
  7 15  1  0
 15 16  2  0
 16 17  1  0
 17 18  2  0
 18 19  1  0
 19 20  1  0
 19 21  2  0
  6 22  2  0
 22  2  1  0
 14  8  1  0
 21 15  1  0
M  END
>  <linear_selectivity>  (38) 
44

>  <denticity>  (38) 
1

>  <ligand_class>  (38) 
phosphine

$$$$
P(o-Tol)3_80C_dioxane
     RDKit          2D

 22 24  0  0  0  0  0  0  0  0999 V2000
    4.5000   -2.5981    0.0000 C   0  0  0  0  0  0  0  0  0  0  0  0
    3.0000   -2.5981    0.0000 C   0  0  0  0  0  0  0  0  0  0  0  0
    2.2500   -3.8971    0.0000 C   0  0  0  0  0  0  0  0  0  0  0  0
    0.7500   -3.8971    0.0000 C   0  0  0  0  0  0  0  0  0  0  0  0
   -0.0000   -2.5981    0.0000 C   0  0  0  0  0  0  0  0  0  0  0  0
    0.7500   -1.2990    0.0000 C   0  0  0  0  0  0  0  0  0  0  0  0
    0.0000    0.0000    0.0000 P   0  0  0  0  0  0  0  0  0  0  0  0
    0.7500    1.2990    0.0000 C   0  0  0  0  0  0  0  0  0  0  0  0
    2.2500    1.2990    0.0000 C   0  0  0  0  0  0  0  0  0  0  0  0
    3.0000    2.5981    0.0000 C   0  0  0  0  0  0  0  0  0  0  0  0
    2.2500    3.8971    0.0000 C   0  0  0  0  0  0  0  0  0  0  0  0
    0.7500    3.8971    0.0000 C   0  0  0  0  0  0  0  0  0  0  0  0
    0.0000    5.1962    0.0000 C   0  0  0  0  0  0  0  0  0  0  0  0
    0.0000    2.5981    0.0000 C   0  0  0  0  0  0  0  0  0  0  0  0
   -1.5000    0.0000    0.0000 C   0  0  0  0  0  0  0  0  0  0  0  0
   -2.2500    1.2990    0.0000 C   0  0  0  0  0  0  0  0  0  0  0  0
   -3.7500    1.2990    0.0000 C   0  0  0  0  0  0  0  0  0  0  0  0
   -4.5000    0.0000    0.0000 C   0  0  0  0  0  0  0  0  0  0  0  0
   -3.7500   -1.2990    0.0000 C   0  0  0  0  0  0  0  0  0  0  0  0
   -4.5000   -2.5981    0.0000 C   0  0  0  0  0  0  0  0  0  0  0  0
   -2.2500   -1.2990    0.0000 C   0  0  0  0  0  0  0  0  0  0  0  0
    2.2500   -1.2990    0.0000 C   0  0  0  0  0  0  0  0  0  0  0  0
  1  2  1  0
  2  3  2  0
  3  4  1  0
  4  5  2  0
  5  6  1  0
  6  7  1  0
  7  8  1  0
  8  9  2  0
  9 10  1  0
 10 11  2  0
 11 12  1  0
 12 13  1  0
 12 14  2  0
  7 15  1  0
 15 16  2  0
 16 17  1  0
 17 18  2  0
 18 19  1  0
 19 20  1  0
 19 21  2  0
  6 22  2  0
 22  2  1  0
 14  8  1  0
 21 15  1  0
M  END
>  <linear_selectivity>  (39) 
43

>  <denticity>  (39) 
1

>  <ligand_class>  (39) 
phosphine

$$$$
P(o-Tol)3_80C_hexane
     RDKit          2D

 22 24  0  0  0  0  0  0  0  0999 V2000
    4.5000   -2.5981    0.0000 C   0  0  0  0  0  0  0  0  0  0  0  0
    3.0000   -2.5981    0.0000 C   0  0  0  0  0  0  0  0  0  0  0  0
    2.2500   -3.8971    0.0000 C   0  0  0  0  0  0  0  0  0  0  0  0
    0.7500   -3.8971    0.0000 C   0  0  0  0  0  0  0  0  0  0  0  0
   -0.0000   -2.5981    0.0000 C   0  0  0  0  0  0  0  0  0  0  0  0
    0.7500   -1.2990    0.0000 C   0  0  0  0  0  0  0  0  0  0  0  0
    0.0000    0.0000    0.0000 P   0  0  0  0  0  0  0  0  0  0  0  0
    0.7500    1.2990    0.0000 C   0  0  0  0  0  0  0  0  0  0  0  0
    2.2500    1.2990    0.0000 C   0  0  0  0  0  0  0  0  0  0  0  0
    3.0000    2.5981    0.0000 C   0  0  0  0  0  0  0  0  0  0  0  0
    2.2500    3.8971    0.0000 C   0  0  0  0  0  0  0  0  0  0  0  0
    0.7500    3.8971    0.0000 C   0  0  0  0  0  0  0  0  0  0  0  0
    0.0000    5.1962    0.0000 C   0  0  0  0  0  0  0  0  0  0  0  0
    0.0000    2.5981    0.0000 C   0  0  0  0  0  0  0  0  0  0  0  0
   -1.5000    0.0000    0.0000 C   0  0  0  0  0  0  0  0  0  0  0  0
   -2.2500    1.2990    0.0000 C   0  0  0  0  0  0  0  0  0  0  0  0
   -3.7500    1.2990    0.0000 C   0  0  0  0  0  0  0  0  0  0  0  0
   -4.5000    0.0000    0.0000 C   0  0  0  0  0  0  0  0  0  0  0  0
   -3.7500   -1.2990    0.0000 C   0  0  0  0  0  0  0  0  0  0  0  0
   -4.5000   -2.5981    0.0000 C   0  0  0  0  0  0  0  0  0  0  0  0
   -2.2500   -1.2990    0.0000 C   0  0  0  0  0  0  0  0  0  0  0  0
    2.2500   -1.2990    0.0000 C   0  0  0  0  0  0  0  0  0  0  0  0
  1  2  1  0
  2  3  2  0
  3  4  1  0
  4  5  2  0
  5  6  1  0
  6  7  1  0
  7  8  1  0
  8  9  2  0
  9 10  1  0
 10 11  2  0
 11 12  1  0
 12 13  1  0
 12 14  2  0
  7 15  1  0
 15 16  2  0
 16 17  1  0
 17 18  2  0
 18 19  1  0
 19 20  1  0
 19 21  2  0
  6 22  2  0
 22  2  1  0
 14  8  1  0
 21 15  1  0
M  END
>  <linear_selectivity>  (40) 
49

>  <denticity>  (40) 
1

>  <ligand_class>  (40) 
phosphine

$$$$
P(o-Tol)3_80C_xylene
     RDKit          2D

 22 24  0  0  0  0  0  0  0  0999 V2000
    4.5000   -2.5981    0.0000 C   0  0  0  0  0  0  0  0  0  0  0  0
    3.0000   -2.5981    0.0000 C   0  0  0  0  0  0  0  0  0  0  0  0
    2.2500   -3.8971    0.0000 C   0  0  0  0  0  0  0  0  0  0  0  0
    0.7500   -3.8971    0.0000 C   0  0  0  0  0  0  0  0  0  0  0  0
   -0.0000   -2.5981    0.0000 C   0  0  0  0  0  0  0  0  0  0  0  0
    0.7500   -1.2990    0.0000 C   0  0  0  0  0  0  0  0  0  0  0  0
    0.0000    0.0000    0.0000 P   0  0  0  0  0  0  0  0  0  0  0  0
    0.7500    1.2990    0.0000 C   0  0  0  0  0  0  0  0  0  0  0  0
    2.2500    1.2990    0.0000 C   0  0  0  0  0  0  0  0  0  0  0  0
    3.0000    2.5981    0.0000 C   0  0  0  0  0  0  0  0  0  0  0  0
    2.2500    3.8971    0.0000 C   0  0  0  0  0  0  0  0  0  0  0  0
    0.7500    3.8971    0.0000 C   0  0  0  0  0  0  0  0  0  0  0  0
    0.0000    5.1962    0.0000 C   0  0  0  0  0  0  0  0  0  0  0  0
    0.0000    2.5981    0.0000 C   0  0  0  0  0  0  0  0  0  0  0  0
   -1.5000    0.0000    0.0000 C   0  0  0  0  0  0  0  0  0  0  0  0
   -2.2500    1.2990    0.0000 C   0  0  0  0  0  0  0  0  0  0  0  0
   -3.7500    1.2990    0.0000 C   0  0  0  0  0  0  0  0  0  0  0  0
   -4.5000    0.0000    0.0000 C   0  0  0  0  0  0  0  0  0  0  0  0
   -3.7500   -1.2990    0.0000 C   0  0  0  0  0  0  0  0  0  0  0  0
   -4.5000   -2.5981    0.0000 C   0  0  0  0  0  0  0  0  0  0  0  0
   -2.2500   -1.2990    0.0000 C   0  0  0  0  0  0  0  0  0  0  0  0
    2.2500   -1.2990    0.0000 C   0  0  0  0  0  0  0  0  0  0  0  0
  1  2  1  0
  2  3  2  0
  3  4  1  0
  4  5  2  0
  5  6  1  0
  6  7  1  0
  7  8  1  0
  8  9  2  0
  9 10  1  0
 10 11  2  0
 11 12  1  0
 12 13  1  0
 12 14  2  0
  7 15  1  0
 15 16  2  0
 16 17  1  0
 17 18  2  0
 18 19  1  0
 19 20  1  0
 19 21  2  0
  6 22  2  0
 22  2  1  0
 14  8  1  0
 21 15  1  0
M  END
>  <linear_selectivity>  (41) 
48

>  <denticity>  (41) 
1

>  <ligand_class>  (41) 
phosphine

$$$$
P(o-Tol)3_90C_toluene
     RDKit          2D

 22 24  0  0  0  0  0  0  0  0999 V2000
    4.5000   -2.5981    0.0000 C   0  0  0  0  0  0  0  0  0  0  0  0
    3.0000   -2.5981    0.0000 C   0  0  0  0  0  0  0  0  0  0  0  0
    2.2500   -3.8971    0.0000 C   0  0  0  0  0  0  0  0  0  0  0  0
    0.7500   -3.8971    0.0000 C   0  0  0  0  0  0  0  0  0  0  0  0
   -0.0000   -2.5981    0.0000 C   0  0  0  0  0  0  0  0  0  0  0  0
    0.7500   -1.2990    0.0000 C   0  0  0  0  0  0  0  0  0  0  0  0
    0.0000    0.0000    0.0000 P   0  0  0  0  0  0  0  0  0  0  0  0
    0.7500    1.2990    0.0000 C   0  0  0  0  0  0  0  0  0  0  0  0
    2.2500    1.2990    0.0000 C   0  0  0  0  0  0  0  0  0  0  0  0
    3.0000    2.5981    0.0000 C   0  0  0  0  0  0  0  0  0  0  0  0
    2.2500    3.8971    0.0000 C   0  0  0  0  0  0  0  0  0  0  0  0
    0.7500    3.8971    0.0000 C   0  0  0  0  0  0  0  0  0  0  0  0
    0.0000    5.1962    0.0000 C   0  0  0  0  0  0  0  0  0  0  0  0
    0.0000    2.5981    0.0000 C   0  0  0  0  0  0  0  0  0  0  0  0
   -1.5000    0.0000    0.0000 C   0  0  0  0  0  0  0  0  0  0  0  0
   -2.2500    1.2990    0.0000 C   0  0  0  0  0  0  0  0  0  0  0  0
   -3.7500    1.2990    0.0000 C   0  0  0  0  0  0  0  0  0  0  0  0
   -4.5000    0.0000    0.0000 C   0  0  0  0  0  0  0  0  0  0  0  0
   -3.7500   -1.2990    0.0000 C   0  0  0  0  0  0  0  0  0  0  0  0
   -4.5000   -2.5981    0.0000 C   0  0  0  0  0  0  0  0  0  0  0  0
   -2.2500   -1.2990    0.0000 C   0  0  0  0  0  0  0  0  0  0  0  0
    2.2500   -1.2990    0.0000 C   0  0  0  0  0  0  0  0  0  0  0  0
  1  2  1  0
  2  3  2  0
  3  4  1  0
  4  5  2  0
  5  6  1  0
  6  7  1  0
  7  8  1  0
  8  9  2  0
  9 10  1  0
 10 11  2  0
 11 12  1  0
 12 13  1  0
 12 14  2  0
  7 15  1  0
 15 16  2  0
 16 17  1  0
 17 18  2  0
 18 19  1  0
 19 20  1  0
 19 21  2  0
  6 22  2  0
 22  2  1  0
 14  8  1  0
 21 15  1  0
M  END
>  <linear_selectivity>  (42) 
44

>  <denticity>  (42) 
1

>  <ligand_class>  (42) 
phosphine

$$$$
P(o-Tol)3_90C_THF
     RDKit          2D

 22 24  0  0  0  0  0  0  0  0999 V2000
    4.5000   -2.5981    0.0000 C   0  0  0  0  0  0  0  0  0  0  0  0
    3.0000   -2.5981    0.0000 C   0  0  0  0  0  0  0  0  0  0  0  0
    2.2500   -3.8971    0.0000 C   0  0  0  0  0  0  0  0  0  0  0  0
    0.7500   -3.8971    0.0000 C   0  0  0  0  0  0  0  0  0  0  0  0
   -0.0000   -2.5981    0.0000 C   0  0  0  0  0  0  0  0  0  0  0  0
    0.7500   -1.2990    0.0000 C   0  0  0  0  0  0  0  0  0  0  0  0
    0.0000    0.0000    0.0000 P   0  0  0  0  0  0  0  0  0  0  0  0
    0.7500    1.2990    0.0000 C   0  0  0  0  0  0  0  0  0  0  0  0
    2.2500    1.2990    0.0000 C   0  0  0  0  0  0  0  0  0  0  0  0
    3.0000    2.5981    0.0000 C   0  0  0  0  0  0  0  0  0  0  0  0
    2.2500    3.8971    0.0000 C   0  0  0  0  0  0  0  0  0  0  0  0
    0.7500    3.8971    0.0000 C   0  0  0  0  0  0  0  0  0  0  0  0
    0.0000    5.1962    0.0000 C   0  0  0  0  0  0  0  0  0  0  0  0
    0.0000    2.5981    0.0000 C   0  0  0  0  0  0  0  0  0  0  0  0
   -1.5000    0.0000    0.0000 C   0  0  0  0  0  0  0  0  0  0  0  0
   -2.2500    1.2990    0.0000 C   0  0  0  0  0  0  0  0  0  0  0  0
   -3.7500    1.2990    0.0000 C   0  0  0  0  0  0  0  0  0  0  0  0
   -4.5000    0.0000    0.0000 C   0  0  0  0  0  0  0  0  0  0  0  0
   -3.7500   -1.2990    0.0000 C   0  0  0  0  0  0  0  0  0  0  0  0
   -4.5000   -2.5981    0.0000 C   0  0  0  0  0  0  0  0  0  0  0  0
   -2.2500   -1.2990    0.0000 C   0  0  0  0  0  0  0  0  0  0  0  0
    2.2500   -1.2990    0.0000 C   0  0  0  0  0  0  0  0  0  0  0  0
  1  2  1  0
  2  3  2  0
  3  4  1  0
  4  5  2  0
  5  6  1  0
  6  7  1  0
  7  8  1  0
  8  9  2  0
  9 10  1  0
 10 11  2  0
 11 12  1  0
 12 13  1  0
 12 14  2  0
  7 15  1  0
 15 16  2  0
 16 17  1  0
 17 18  2  0
 18 19  1  0
 19 20  1  0
 19 21  2  0
  6 22  2  0
 22  2  1  0
 14  8  1  0
 21 15  1  0
M  END
>  <linear_selectivity>  (43) 
40

>  <denticity>  (43) 
1

>  <ligand_class>  (43) 
phosphine

$$$$
P(o-Tol)3_90C_dioxane
     RDKit          2D

 22 24  0  0  0  0  0  0  0  0999 V2000
    4.5000   -2.5981    0.0000 C   0  0  0  0  0  0  0  0  0  0  0  0
    3.0000   -2.5981    0.0000 C   0  0  0  0  0  0  0  0  0  0  0  0
    2.2500   -3.8971    0.0000 C   0  0  0  0  0  0  0  0  0  0  0  0
    0.7500   -3.8971    0.0000 C   0  0  0  0  0  0  0  0  0  0  0  0
   -0.0000   -2.5981    0.0000 C   0  0  0  0  0  0  0  0  0  0  0  0
    0.7500   -1.2990    0.0000 C   0  0  0  0  0  0  0  0  0  0  0  0
    0.0000    0.0000    0.0000 P   0  0  0  0  0  0  0  0  0  0  0  0
    0.7500    1.2990    0.0000 C   0  0  0  0  0  0  0  0  0  0  0  0
    2.2500    1.2990    0.0000 C   0  0  0  0  0  0  0  0  0  0  0  0
    3.0000    2.5981    0.0000 C   0  0  0  0  0  0  0  0  0  0  0  0
    2.2500    3.8971    0.0000 C   0  0  0  0  0  0  0  0  0  0  0  0
    0.7500    3.8971    0.0000 C   0  0  0  0  0  0  0  0  0  0  0  0
    0.0000    5.1962    0.0000 C   0  0  0  0  0  0  0  0  0  0  0  0
    0.0000    2.5981    0.0000 C   0  0  0  0  0  0  0  0  0  0  0  0
   -1.5000    0.0000    0.0000 C   0  0  0  0  0  0  0  0  0  0  0  0
   -2.2500    1.2990    0.0000 C   0  0  0  0  0  0  0  0  0  0  0  0
   -3.7500    1.2990    0.0000 C   0  0  0  0  0  0  0  0  0  0  0  0
   -4.5000    0.0000    0.0000 C   0  0  0  0  0  0  0  0  0  0  0  0
   -3.7500   -1.2990    0.0000 C   0  0  0  0  0  0  0  0  0  0  0  0
   -4.5000   -2.5981    0.0000 C   0  0  0  0  0  0  0  0  0  0  0  0
   -2.2500   -1.2990    0.0000 C   0  0  0  0  0  0  0  0  0  0  0  0
    2.2500   -1.2990    0.0000 C   0  0  0  0  0  0  0  0  0  0  0  0
  1  2  1  0
  2  3  2  0
  3  4  1  0
  4  5  2  0
  5  6  1  0
  6  7  1  0
  7  8  1  0
  8  9  2  0
  9 10  1  0
 10 11  2  0
 11 12  1  0
 12 13  1  0
 12 14  2  0
  7 15  1  0
 15 16  2  0
 16 17  1  0
 17 18  2  0
 18 19  1  0
 19 20  1  0
 19 21  2  0
  6 22  2  0
 22  2  1  0
 14  8  1  0
 21 15  1  0
M  END
>  <linear_selectivity>  (44) 
43

>  <denticity>  (44) 
1

>  <ligand_class>  (44) 
phosphine

$$$$
P(o-Tol)3_90C_hexane
     RDKit          2D

 22 24  0  0  0  0  0  0  0  0999 V2000
    4.5000   -2.5981    0.0000 C   0  0  0  0  0  0  0  0  0  0  0  0
    3.0000   -2.5981    0.0000 C   0  0  0  0  0  0  0  0  0  0  0  0
    2.2500   -3.8971    0.0000 C   0  0  0  0  0  0  0  0  0  0  0  0
    0.7500   -3.8971    0.0000 C   0  0  0  0  0  0  0  0  0  0  0  0
   -0.0000   -2.5981    0.0000 C   0  0  0  0  0  0  0  0  0  0  0  0
    0.7500   -1.2990    0.0000 C   0  0  0  0  0  0  0  0  0  0  0  0
    0.0000    0.0000    0.0000 P   0  0  0  0  0  0  0  0  0  0  0  0
    0.7500    1.2990    0.0000 C   0  0  0  0  0  0  0  0  0  0  0  0
    2.2500    1.2990    0.0000 C   0  0  0  0  0  0  0  0  0  0  0  0
    3.0000    2.5981    0.0000 C   0  0  0  0  0  0  0  0  0  0  0  0
    2.2500    3.8971    0.0000 C   0  0  0  0  0  0  0  0  0  0  0  0
    0.7500    3.8971    0.0000 C   0  0  0  0  0  0  0  0  0  0  0  0
    0.0000    5.1962    0.0000 C   0  0  0  0  0  0  0  0  0  0  0  0
    0.0000    2.5981    0.0000 C   0  0  0  0  0  0  0  0  0  0  0  0
   -1.5000    0.0000    0.0000 C   0  0  0  0  0  0  0  0  0  0  0  0
   -2.2500    1.2990    0.0000 C   0  0  0  0  0  0  0  0  0  0  0  0
   -3.7500    1.2990    0.0000 C   0  0  0  0  0  0  0  0  0  0  0  0
   -4.5000    0.0000    0.0000 C   0  0  0  0  0  0  0  0  0  0  0  0
   -3.7500   -1.2990    0.0000 C   0  0  0  0  0  0  0  0  0  0  0  0
   -4.5000   -2.5981    0.0000 C   0  0  0  0  0  0  0  0  0  0  0  0
   -2.2500   -1.2990    0.0000 C   0  0  0  0  0  0  0  0  0  0  0  0
    2.2500   -1.2990    0.0000 C   0  0  0  0  0  0  0  0  0  0  0  0
  1  2  1  0
  2  3  2  0
  3  4  1  0
  4  5  2  0
  5  6  1  0
  6  7  1  0
  7  8  1  0
  8  9  2  0
  9 10  1  0
 10 11  2  0
 11 12  1  0
 12 13  1  0
 12 14  2  0
  7 15  1  0
 15 16  2  0
 16 17  1  0
 17 18  2  0
 18 19  1  0
 19 20  1  0
 19 21  2  0
  6 22  2  0
 22  2  1  0
 14  8  1  0
 21 15  1  0
M  END
>  <linear_selectivity>  (45) 
45

>  <denticity>  (45) 
1

>  <ligand_class>  (45) 
phosphine

$$$$
P(o-Tol)3_90C_benzene
     RDKit          2D

 22 24  0  0  0  0  0  0  0  0999 V2000
    4.5000   -2.5981    0.0000 C   0  0  0  0  0  0  0  0  0  0  0  0
    3.0000   -2.5981    0.0000 C   0  0  0  0  0  0  0  0  0  0  0  0
    2.2500   -3.8971    0.0000 C   0  0  0  0  0  0  0  0  0  0  0  0
    0.7500   -3.8971    0.0000 C   0  0  0  0  0  0  0  0  0  0  0  0
   -0.0000   -2.5981    0.0000 C   0  0  0  0  0  0  0  0  0  0  0  0
    0.7500   -1.2990    0.0000 C   0  0  0  0  0  0  0  0  0  0  0  0
    0.0000    0.0000    0.0000 P   0  0  0  0  0  0  0  0  0  0  0  0
    0.7500    1.2990    0.0000 C   0  0  0  0  0  0  0  0  0  0  0  0
    2.2500    1.2990    0.0000 C   0  0  0  0  0  0  0  0  0  0  0  0
    3.0000    2.5981    0.0000 C   0  0  0  0  0  0  0  0  0  0  0  0
    2.2500    3.8971    0.0000 C   0  0  0  0  0  0  0  0  0  0  0  0
    0.7500    3.8971    0.0000 C   0  0  0  0  0  0  0  0  0  0  0  0
    0.0000    5.1962    0.0000 C   0  0  0  0  0  0  0  0  0  0  0  0
    0.0000    2.5981    0.0000 C   0  0  0  0  0  0  0  0  0  0  0  0
   -1.5000    0.0000    0.0000 C   0  0  0  0  0  0  0  0  0  0  0  0
   -2.2500    1.2990    0.0000 C   0  0  0  0  0  0  0  0  0  0  0  0
   -3.7500    1.2990    0.0000 C   0  0  0  0  0  0  0  0  0  0  0  0
   -4.5000    0.0000    0.0000 C   0  0  0  0  0  0  0  0  0  0  0  0
   -3.7500   -1.2990    0.0000 C   0  0  0  0  0  0  0  0  0  0  0  0
   -4.5000   -2.5981    0.0000 C   0  0  0  0  0  0  0  0  0  0  0  0
   -2.2500   -1.2990    0.0000 C   0  0  0  0  0  0  0  0  0  0  0  0
    2.2500   -1.2990    0.0000 C   0  0  0  0  0  0  0  0  0  0  0  0
  1  2  1  0
  2  3  2  0
  3  4  1  0
  4  5  2  0
  5  6  1  0
  6  7  1  0
  7  8  1  0
  8  9  2  0
  9 10  1  0
 10 11  2  0
 11 12  1  0
 12 13  1  0
 12 14  2  0
  7 15  1  0
 15 16  2  0
 16 17  1  0
 17 18  2  0
 18 19  1  0
 19 20  1  0
 19 21  2  0
  6 22  2  0
 22  2  1  0
 14  8  1  0
 21 15  1  0
M  END
>  <linear_selectivity>  (46) 
44

>  <denticity>  (46) 
1

>  <ligand_class>  (46) 
phosphine

$$$$
P(o-Tol)3_90C_xylene
     RDKit          2D

 22 24  0  0  0  0  0  0  0  0999 V2000
    4.5000   -2.5981    0.0000 C   0  0  0  0  0  0  0  0  0  0  0  0
    3.0000   -2.5981    0.0000 C   0  0  0  0  0  0  0  0  0  0  0  0
    2.2500   -3.8971    0.0000 C   0  0  0  0  0  0  0  0  0  0  0  0
    0.7500   -3.8971    0.0000 C   0  0  0  0  0  0  0  0  0  0  0  0
   -0.0000   -2.5981    0.0000 C   0  0  0  0  0  0  0  0  0  0  0  0
    0.7500   -1.2990    0.0000 C   0  0  0  0  0  0  0  0  0  0  0  0
    0.0000    0.0000    0.0000 P   0  0  0  0  0  0  0  0  0  0  0  0
    0.7500    1.2990    0.0000 C   0  0  0  0  0  0  0  0  0  0  0  0
    2.2500    1.2990    0.0000 C   0  0  0  0  0  0  0  0  0  0  0  0
    3.0000    2.5981    0.0000 C   0  0  0  0  0  0  0  0  0  0  0  0
    2.2500    3.8971    0.0000 C   0  0  0  0  0  0  0  0  0  0  0  0
    0.7500    3.8971    0.0000 C   0  0  0  0  0  0  0  0  0  0  0  0
    0.0000    5.1962    0.0000 C   0  0  0  0  0  0  0  0  0  0  0  0
    0.0000    2.5981    0.0000 C   0  0  0  0  0  0  0  0  0  0  0  0
   -1.5000    0.0000    0.0000 C   0  0  0  0  0  0  0  0  0  0  0  0
   -2.2500    1.2990    0.0000 C   0  0  0  0  0  0  0  0  0  0  0  0
   -3.7500    1.2990    0.0000 C   0  0  0  0  0  0  0  0  0  0  0  0
   -4.5000    0.0000    0.0000 C   0  0  0  0  0  0  0  0  0  0  0  0
   -3.7500   -1.2990    0.0000 C   0  0  0  0  0  0  0  0  0  0  0  0
   -4.5000   -2.5981    0.0000 C   0  0  0  0  0  0  0  0  0  0  0  0
   -2.2500   -1.2990    0.0000 C   0  0  0  0  0  0  0  0  0  0  0  0
    2.2500   -1.2990    0.0000 C   0  0  0  0  0  0  0  0  0  0  0  0
  1  2  1  0
  2  3  2  0
  3  4  1  0
  4  5  2  0
  5  6  1  0
  6  7  1  0
  7  8  1  0
  8  9  2  0
  9 10  1  0
 10 11  2  0
 11 12  1  0
 12 13  1  0
 12 14  2  0
  7 15  1  0
 15 16  2  0
 16 17  1  0
 17 18  2  0
 18 19  1  0
 19 20  1  0
 19 21  2  0
  6 22  2  0
 22  2  1  0
 14  8  1  0
 21 15  1  0
M  END
>  <linear_selectivity>  (47) 
46

>  <denticity>  (47) 
1

>  <ligand_class>  (47) 
phosphine

$$$$
P(o-Tol)3_100C_THF
     RDKit          2D

 22 24  0  0  0  0  0  0  0  0999 V2000
    4.5000   -2.5981    0.0000 C   0  0  0  0  0  0  0  0  0  0  0  0
    3.0000   -2.5981    0.0000 C   0  0  0  0  0  0  0  0  0  0  0  0
    2.2500   -3.8971    0.0000 C   0  0  0  0  0  0  0  0  0  0  0  0
    0.7500   -3.8971    0.0000 C   0  0  0  0  0  0  0  0  0  0  0  0
   -0.0000   -2.5981    0.0000 C   0  0  0  0  0  0  0  0  0  0  0  0
    0.7500   -1.2990    0.0000 C   0  0  0  0  0  0  0  0  0  0  0  0
    0.0000    0.0000    0.0000 P   0  0  0  0  0  0  0  0  0  0  0  0
    0.7500    1.2990    0.0000 C   0  0  0  0  0  0  0  0  0  0  0  0
    2.2500    1.2990    0.0000 C   0  0  0  0  0  0  0  0  0  0  0  0
    3.0000    2.5981    0.0000 C   0  0  0  0  0  0  0  0  0  0  0  0
    2.2500    3.8971    0.0000 C   0  0  0  0  0  0  0  0  0  0  0  0
    0.7500    3.8971    0.0000 C   0  0  0  0  0  0  0  0  0  0  0  0
    0.0000    5.1962    0.0000 C   0  0  0  0  0  0  0  0  0  0  0  0
    0.0000    2.5981    0.0000 C   0  0  0  0  0  0  0  0  0  0  0  0
   -1.5000    0.0000    0.0000 C   0  0  0  0  0  0  0  0  0  0  0  0
   -2.2500    1.2990    0.0000 C   0  0  0  0  0  0  0  0  0  0  0  0
   -3.7500    1.2990    0.0000 C   0  0  0  0  0  0  0  0  0  0  0  0
   -4.5000    0.0000    0.0000 C   0  0  0  0  0  0  0  0  0  0  0  0
   -3.7500   -1.2990    0.0000 C   0  0  0  0  0  0  0  0  0  0  0  0
   -4.5000   -2.5981    0.0000 C   0  0  0  0  0  0  0  0  0  0  0  0
   -2.2500   -1.2990    0.0000 C   0  0  0  0  0  0  0  0  0  0  0  0
    2.2500   -1.2990    0.0000 C   0  0  0  0  0  0  0  0  0  0  0  0
  1  2  1  0
  2  3  2  0
  3  4  1  0
  4  5  2  0
  5  6  1  0
  6  7  1  0
  7  8  1  0
  8  9  2  0
  9 10  1  0
 10 11  2  0
 11 12  1  0
 12 13  1  0
 12 14  2  0
  7 15  1  0
 15 16  2  0
 16 17  1  0
 17 18  2  0
 18 19  1  0
 19 20  1  0
 19 21  2  0
  6 22  2  0
 22  2  1  0
 14  8  1  0
 21 15  1  0
M  END
>  <linear_selectivity>  (48) 
39

>  <denticity>  (48) 
1

>  <ligand_class>  (48) 
phosphine

$$$$
P(o-Tol)3_100C_dioxane
     RDKit          2D

 22 24  0  0  0  0  0  0  0  0999 V2000
    4.5000   -2.5981    0.0000 C   0  0  0  0  0  0  0  0  0  0  0  0
    3.0000   -2.5981    0.0000 C   0  0  0  0  0  0  0  0  0  0  0  0
    2.2500   -3.8971    0.0000 C   0  0  0  0  0  0  0  0  0  0  0  0
    0.7500   -3.8971    0.0000 C   0  0  0  0  0  0  0  0  0  0  0  0
   -0.0000   -2.5981    0.0000 C   0  0  0  0  0  0  0  0  0  0  0  0
    0.7500   -1.2990    0.0000 C   0  0  0  0  0  0  0  0  0  0  0  0
    0.0000    0.0000    0.0000 P   0  0  0  0  0  0  0  0  0  0  0  0
    0.7500    1.2990    0.0000 C   0  0  0  0  0  0  0  0  0  0  0  0
    2.2500    1.2990    0.0000 C   0  0  0  0  0  0  0  0  0  0  0  0
    3.0000    2.5981    0.0000 C   0  0  0  0  0  0  0  0  0  0  0  0
    2.2500    3.8971    0.0000 C   0  0  0  0  0  0  0  0  0  0  0  0
    0.7500    3.8971    0.0000 C   0  0  0  0  0  0  0  0  0  0  0  0
    0.0000    5.1962    0.0000 C   0  0  0  0  0  0  0  0  0  0  0  0
    0.0000    2.5981    0.0000 C   0  0  0  0  0  0  0  0  0  0  0  0
   -1.5000    0.0000    0.0000 C   0  0  0  0  0  0  0  0  0  0  0  0
   -2.2500    1.2990    0.0000 C   0  0  0  0  0  0  0  0  0  0  0  0
   -3.7500    1.2990    0.0000 C   0  0  0  0  0  0  0  0  0  0  0  0
   -4.5000    0.0000    0.0000 C   0  0  0  0  0  0  0  0  0  0  0  0
   -3.7500   -1.2990    0.0000 C   0  0  0  0  0  0  0  0  0  0  0  0
   -4.5000   -2.5981    0.0000 C   0  0  0  0  0  0  0  0  0  0  0  0
   -2.2500   -1.2990    0.0000 C   0  0  0  0  0  0  0  0  0  0  0  0
    2.2500   -1.2990    0.0000 C   0  0  0  0  0  0  0  0  0  0  0  0
  1  2  1  0
  2  3  2  0
  3  4  1  0
  4  5  2  0
  5  6  1  0
  6  7  1  0
  7  8  1  0
  8  9  2  0
  9 10  1  0
 10 11  2  0
 11 12  1  0
 12 13  1  0
 12 14  2  0
  7 15  1  0
 15 16  2  0
 16 17  1  0
 17 18  2  0
 18 19  1  0
 19 20  1  0
 19 21  2  0
  6 22  2  0
 22  2  1  0
 14  8  1  0
 21 15  1  0
M  END
>  <linear_selectivity>  (49) 
41

>  <denticity>  (49) 
1

>  <ligand_class>  (49) 
phosphine

$$$$
P(o-Tol)3_100C_hexane
     RDKit          2D

 22 24  0  0  0  0  0  0  0  0999 V2000
    4.5000   -2.5981    0.0000 C   0  0  0  0  0  0  0  0  0  0  0  0
    3.0000   -2.5981    0.0000 C   0  0  0  0  0  0  0  0  0  0  0  0
    2.2500   -3.8971    0.0000 C   0  0  0  0  0  0  0  0  0  0  0  0
    0.7500   -3.8971    0.0000 C   0  0  0  0  0  0  0  0  0  0  0  0
   -0.0000   -2.5981    0.0000 C   0  0  0  0  0  0  0  0  0  0  0  0
    0.7500   -1.2990    0.0000 C   0  0  0  0  0  0  0  0  0  0  0  0
    0.0000    0.0000    0.0000 P   0  0  0  0  0  0  0  0  0  0  0  0
    0.7500    1.2990    0.0000 C   0  0  0  0  0  0  0  0  0  0  0  0
    2.2500    1.2990    0.0000 C   0  0  0  0  0  0  0  0  0  0  0  0
    3.0000    2.5981    0.0000 C   0  0  0  0  0  0  0  0  0  0  0  0
    2.2500    3.8971    0.0000 C   0  0  0  0  0  0  0  0  0  0  0  0
    0.7500    3.8971    0.0000 C   0  0  0  0  0  0  0  0  0  0  0  0
    0.0000    5.1962    0.0000 C   0  0  0  0  0  0  0  0  0  0  0  0
    0.0000    2.5981    0.0000 C   0  0  0  0  0  0  0  0  0  0  0  0
   -1.5000    0.0000    0.0000 C   0  0  0  0  0  0  0  0  0  0  0  0
   -2.2500    1.2990    0.0000 C   0  0  0  0  0  0  0  0  0  0  0  0
   -3.7500    1.2990    0.0000 C   0  0  0  0  0  0  0  0  0  0  0  0
   -4.5000    0.0000    0.0000 C   0  0  0  0  0  0  0  0  0  0  0  0
   -3.7500   -1.2990    0.0000 C   0  0  0  0  0  0  0  0  0  0  0  0
   -4.5000   -2.5981    0.0000 C   0  0  0  0  0  0  0  0  0  0  0  0
   -2.2500   -1.2990    0.0000 C   0  0  0  0  0  0  0  0  0  0  0  0
    2.2500   -1.2990    0.0000 C   0  0  0  0  0  0  0  0  0  0  0  0
  1  2  1  0
  2  3  2  0
  3  4  1  0
  4  5  2  0
  5  6  1  0
  6  7  1  0
  7  8  1  0
  8  9  2  0
  9 10  1  0
 10 11  2  0
 11 12  1  0
 12 13  1  0
 12 14  2  0
  7 15  1  0
 15 16  2  0
 16 17  1  0
 17 18  2  0
 18 19  1  0
 19 20  1  0
 19 21  2  0
  6 22  2  0
 22  2  1  0
 14  8  1  0
 21 15  1  0
M  END
>  <linear_selectivity>  (50) 
45

>  <denticity>  (50) 
1

>  <ligand_class>  (50) 
phosphine

$$$$
P(o-Tol)3_100C_benzene
     RDKit          2D

 22 24  0  0  0  0  0  0  0  0999 V2000
    4.5000   -2.5981    0.0000 C   0  0  0  0  0  0  0  0  0  0  0  0
    3.0000   -2.5981    0.0000 C   0  0  0  0  0  0  0  0  0  0  0  0
    2.2500   -3.8971    0.0000 C   0  0  0  0  0  0  0  0  0  0  0  0
    0.7500   -3.8971    0.0000 C   0  0  0  0  0  0  0  0  0  0  0  0
   -0.0000   -2.5981    0.0000 C   0  0  0  0  0  0  0  0  0  0  0  0
    0.7500   -1.2990    0.0000 C   0  0  0  0  0  0  0  0  0  0  0  0
    0.0000    0.0000    0.0000 P   0  0  0  0  0  0  0  0  0  0  0  0
    0.7500    1.2990    0.0000 C   0  0  0  0  0  0  0  0  0  0  0  0
    2.2500    1.2990    0.0000 C   0  0  0  0  0  0  0  0  0  0  0  0
    3.0000    2.5981    0.0000 C   0  0  0  0  0  0  0  0  0  0  0  0
    2.2500    3.8971    0.0000 C   0  0  0  0  0  0  0  0  0  0  0  0
    0.7500    3.8971    0.0000 C   0  0  0  0  0  0  0  0  0  0  0  0
    0.0000    5.1962    0.0000 C   0  0  0  0  0  0  0  0  0  0  0  0
    0.0000    2.5981    0.0000 C   0  0  0  0  0  0  0  0  0  0  0  0
   -1.5000    0.0000    0.0000 C   0  0  0  0  0  0  0  0  0  0  0  0
   -2.2500    1.2990    0.0000 C   0  0  0  0  0  0  0  0  0  0  0  0
   -3.7500    1.2990    0.0000 C   0  0  0  0  0  0  0  0  0  0  0  0
   -4.5000    0.0000    0.0000 C   0  0  0  0  0  0  0  0  0  0  0  0
   -3.7500   -1.2990    0.0000 C   0  0  0  0  0  0  0  0  0  0  0  0
   -4.5000   -2.5981    0.0000 C   0  0  0  0  0  0  0  0  0  0  0  0
   -2.2500   -1.2990    0.0000 C   0  0  0  0  0  0  0  0  0  0  0  0
    2.2500   -1.2990    0.0000 C   0  0  0  0  0  0  0  0  0  0  0  0
  1  2  1  0
  2  3  2  0
  3  4  1  0
  4  5  2  0
  5  6  1  0
  6  7  1  0
  7  8  1  0
  8  9  2  0
  9 10  1  0
 10 11  2  0
 11 12  1  0
 12 13  1  0
 12 14  2  0
  7 15  1  0
 15 16  2  0
 16 17  1  0
 17 18  2  0
 18 19  1  0
 19 20  1  0
 19 21  2  0
  6 22  2  0
 22  2  1  0
 14  8  1  0
 21 15  1  0
M  END
>  <linear_selectivity>  (51) 
37

>  <denticity>  (51) 
1

>  <ligand_class>  (51) 
phosphine

$$$$
P(o-Tol)3_100C_xylene
     RDKit          2D

 22 24  0  0  0  0  0  0  0  0999 V2000
    4.5000   -2.5981    0.0000 C   0  0  0  0  0  0  0  0  0  0  0  0
    3.0000   -2.5981    0.0000 C   0  0  0  0  0  0  0  0  0  0  0  0
    2.2500   -3.8971    0.0000 C   0  0  0  0  0  0  0  0  0  0  0  0
    0.7500   -3.8971    0.0000 C   0  0  0  0  0  0  0  0  0  0  0  0
   -0.0000   -2.5981    0.0000 C   0  0  0  0  0  0  0  0  0  0  0  0
    0.7500   -1.2990    0.0000 C   0  0  0  0  0  0  0  0  0  0  0  0
    0.0000    0.0000    0.0000 P   0  0  0  0  0  0  0  0  0  0  0  0
    0.7500    1.2990    0.0000 C   0  0  0  0  0  0  0  0  0  0  0  0
    2.2500    1.2990    0.0000 C   0  0  0  0  0  0  0  0  0  0  0  0
    3.0000    2.5981    0.0000 C   0  0  0  0  0  0  0  0  0  0  0  0
    2.2500    3.8971    0.0000 C   0  0  0  0  0  0  0  0  0  0  0  0
    0.7500    3.8971    0.0000 C   0  0  0  0  0  0  0  0  0  0  0  0
    0.0000    5.1962    0.0000 C   0  0  0  0  0  0  0  0  0  0  0  0
    0.0000    2.5981    0.0000 C   0  0  0  0  0  0  0  0  0  0  0  0
   -1.5000    0.0000    0.0000 C   0  0  0  0  0  0  0  0  0  0  0  0
   -2.2500    1.2990    0.0000 C   0  0  0  0  0  0  0  0  0  0  0  0
   -3.7500    1.2990    0.0000 C   0  0  0  0  0  0  0  0  0  0  0  0
   -4.5000    0.0000    0.0000 C   0  0  0  0  0  0  0  0  0  0  0  0
   -3.7500   -1.2990    0.0000 C   0  0  0  0  0  0  0  0  0  0  0  0
   -4.5000   -2.5981    0.0000 C   0  0  0  0  0  0  0  0  0  0  0  0
   -2.2500   -1.2990    0.0000 C   0  0  0  0  0  0  0  0  0  0  0  0
    2.2500   -1.2990    0.0000 C   0  0  0  0  0  0  0  0  0  0  0  0
  1  2  1  0
  2  3  2  0
  3  4  1  0
  4  5  2  0
  5  6  1  0
  6  7  1  0
  7  8  1  0
  8  9  2  0
  9 10  1  0
 10 11  2  0
 11 12  1  0
 12 13  1  0
 12 14  2  0
  7 15  1  0
 15 16  2  0
 16 17  1  0
 17 18  2  0
 18 19  1  0
 19 20  1  0
 19 21  2  0
  6 22  2  0
 22  2  1  0
 14  8  1  0
 21 15  1  0
M  END
>  <linear_selectivity>  (52) 
44

>  <denticity>  (52) 
1

>  <ligand_class>  (52) 
phosphine

$$$$
P(o-Tol)3_110C_toluene
     RDKit          2D

 22 24  0  0  0  0  0  0  0  0999 V2000
    4.5000   -2.5981    0.0000 C   0  0  0  0  0  0  0  0  0  0  0  0
    3.0000   -2.5981    0.0000 C   0  0  0  0  0  0  0  0  0  0  0  0
    2.2500   -3.8971    0.0000 C   0  0  0  0  0  0  0  0  0  0  0  0
    0.7500   -3.8971    0.0000 C   0  0  0  0  0  0  0  0  0  0  0  0
   -0.0000   -2.5981    0.0000 C   0  0  0  0  0  0  0  0  0  0  0  0
    0.7500   -1.2990    0.0000 C   0  0  0  0  0  0  0  0  0  0  0  0
    0.0000    0.0000    0.0000 P   0  0  0  0  0  0  0  0  0  0  0  0
    0.7500    1.2990    0.0000 C   0  0  0  0  0  0  0  0  0  0  0  0
    2.2500    1.2990    0.0000 C   0  0  0  0  0  0  0  0  0  0  0  0
    3.0000    2.5981    0.0000 C   0  0  0  0  0  0  0  0  0  0  0  0
    2.2500    3.8971    0.0000 C   0  0  0  0  0  0  0  0  0  0  0  0
    0.7500    3.8971    0.0000 C   0  0  0  0  0  0  0  0  0  0  0  0
    0.0000    5.1962    0.0000 C   0  0  0  0  0  0  0  0  0  0  0  0
    0.0000    2.5981    0.0000 C   0  0  0  0  0  0  0  0  0  0  0  0
   -1.5000    0.0000    0.0000 C   0  0  0  0  0  0  0  0  0  0  0  0
   -2.2500    1.2990    0.0000 C   0  0  0  0  0  0  0  0  0  0  0  0
   -3.7500    1.2990    0.0000 C   0  0  0  0  0  0  0  0  0  0  0  0
   -4.5000    0.0000    0.0000 C   0  0  0  0  0  0  0  0  0  0  0  0
   -3.7500   -1.2990    0.0000 C   0  0  0  0  0  0  0  0  0  0  0  0
   -4.5000   -2.5981    0.0000 C   0  0  0  0  0  0  0  0  0  0  0  0
   -2.2500   -1.2990    0.0000 C   0  0  0  0  0  0  0  0  0  0  0  0
    2.2500   -1.2990    0.0000 C   0  0  0  0  0  0  0  0  0  0  0  0
  1  2  1  0
  2  3  2  0
  3  4  1  0
  4  5  2  0
  5  6  1  0
  6  7  1  0
  7  8  1  0
  8  9  2  0
  9 10  1  0
 10 11  2  0
 11 12  1  0
 12 13  1  0
 12 14  2  0
  7 15  1  0
 15 16  2  0
 16 17  1  0
 17 18  2  0
 18 19  1  0
 19 20  1  0
 19 21  2  0
  6 22  2  0
 22  2  1  0
 14  8  1  0
 21 15  1  0
M  END
>  <linear_selectivity>  (53) 
37

>  <denticity>  (53) 
1

>  <ligand_class>  (53) 
phosphine

$$$$
P(o-Tol)3_110C_xylene
     RDKit          2D

 22 24  0  0  0  0  0  0  0  0999 V2000
    4.5000   -2.5981    0.0000 C   0  0  0  0  0  0  0  0  0  0  0  0
    3.0000   -2.5981    0.0000 C   0  0  0  0  0  0  0  0  0  0  0  0
    2.2500   -3.8971    0.0000 C   0  0  0  0  0  0  0  0  0  0  0  0
    0.7500   -3.8971    0.0000 C   0  0  0  0  0  0  0  0  0  0  0  0
   -0.0000   -2.5981    0.0000 C   0  0  0  0  0  0  0  0  0  0  0  0
    0.7500   -1.2990    0.0000 C   0  0  0  0  0  0  0  0  0  0  0  0
    0.0000    0.0000    0.0000 P   0  0  0  0  0  0  0  0  0  0  0  0
    0.7500    1.2990    0.0000 C   0  0  0  0  0  0  0  0  0  0  0  0
    2.2500    1.2990    0.0000 C   0  0  0  0  0  0  0  0  0  0  0  0
    3.0000    2.5981    0.0000 C   0  0  0  0  0  0  0  0  0  0  0  0
    2.2500    3.8971    0.0000 C   0  0  0  0  0  0  0  0  0  0  0  0
    0.7500    3.8971    0.0000 C   0  0  0  0  0  0  0  0  0  0  0  0
    0.0000    5.1962    0.0000 C   0  0  0  0  0  0  0  0  0  0  0  0
    0.0000    2.5981    0.0000 C   0  0  0  0  0  0  0  0  0  0  0  0
   -1.5000    0.0000    0.0000 C   0  0  0  0  0  0  0  0  0  0  0  0
   -2.2500    1.2990    0.0000 C   0  0  0  0  0  0  0  0  0  0  0  0
   -3.7500    1.2990    0.0000 C   0  0  0  0  0  0  0  0  0  0  0  0
   -4.5000    0.0000    0.0000 C   0  0  0  0  0  0  0  0  0  0  0  0
   -3.7500   -1.2990    0.0000 C   0  0  0  0  0  0  0  0  0  0  0  0
   -4.5000   -2.5981    0.0000 C   0  0  0  0  0  0  0  0  0  0  0  0
   -2.2500   -1.2990    0.0000 C   0  0  0  0  0  0  0  0  0  0  0  0
    2.2500   -1.2990    0.0000 C   0  0  0  0  0  0  0  0  0  0  0  0
  1  2  1  0
  2  3  2  0
  3  4  1  0
  4  5  2  0
  5  6  1  0
  6  7  1  0
  7  8  1  0
  8  9  2  0
  9 10  1  0
 10 11  2  0
 11 12  1  0
 12 13  1  0
 12 14  2  0
  7 15  1  0
 15 16  2  0
 16 17  1  0
 17 18  2  0
 18 19  1  0
 19 20  1  0
 19 21  2  0
  6 22  2  0
 22  2  1  0
 14  8  1  0
 21 15  1  0
M  END
>  <linear_selectivity>  (54) 
41

>  <denticity>  (54) 
1

>  <ligand_class>  (54) 
phosphine

$$$$
P(o-Tol)3_120C_toluene
     RDKit          2D

 22 24  0  0  0  0  0  0  0  0999 V2000
    4.5000   -2.5981    0.0000 C   0  0  0  0  0  0  0  0  0  0  0  0
    3.0000   -2.5981    0.0000 C   0  0  0  0  0  0  0  0  0  0  0  0
    2.2500   -3.8971    0.0000 C   0  0  0  0  0  0  0  0  0  0  0  0
    0.7500   -3.8971    0.0000 C   0  0  0  0  0  0  0  0  0  0  0  0
   -0.0000   -2.5981    0.0000 C   0  0  0  0  0  0  0  0  0  0  0  0
    0.7500   -1.2990    0.0000 C   0  0  0  0  0  0  0  0  0  0  0  0
    0.0000    0.0000    0.0000 P   0  0  0  0  0  0  0  0  0  0  0  0
    0.7500    1.2990    0.0000 C   0  0  0  0  0  0  0  0  0  0  0  0
    2.2500    1.2990    0.0000 C   0  0  0  0  0  0  0  0  0  0  0  0
    3.0000    2.5981    0.0000 C   0  0  0  0  0  0  0  0  0  0  0  0
    2.2500    3.8971    0.0000 C   0  0  0  0  0  0  0  0  0  0  0  0
    0.7500    3.8971    0.0000 C   0  0  0  0  0  0  0  0  0  0  0  0
    0.0000    5.1962    0.0000 C   0  0  0  0  0  0  0  0  0  0  0  0
    0.0000    2.5981    0.0000 C   0  0  0  0  0  0  0  0  0  0  0  0
   -1.5000    0.0000    0.0000 C   0  0  0  0  0  0  0  0  0  0  0  0
   -2.2500    1.2990    0.0000 C   0  0  0  0  0  0  0  0  0  0  0  0
   -3.7500    1.2990    0.0000 C   0  0  0  0  0  0  0  0  0  0  0  0
   -4.5000    0.0000    0.0000 C   0  0  0  0  0  0  0  0  0  0  0  0
   -3.7500   -1.2990    0.0000 C   0  0  0  0  0  0  0  0  0  0  0  0
   -4.5000   -2.5981    0.0000 C   0  0  0  0  0  0  0  0  0  0  0  0
   -2.2500   -1.2990    0.0000 C   0  0  0  0  0  0  0  0  0  0  0  0
    2.2500   -1.2990    0.0000 C   0  0  0  0  0  0  0  0  0  0  0  0
  1  2  1  0
  2  3  2  0
  3  4  1  0
  4  5  2  0
  5  6  1  0
  6  7  1  0
  7  8  1  0
  8  9  2  0
  9 10  1  0
 10 11  2  0
 11 12  1  0
 12 13  1  0
 12 14  2  0
  7 15  1  0
 15 16  2  0
 16 17  1  0
 17 18  2  0
 18 19  1  0
 19 20  1  0
 19 21  2  0
  6 22  2  0
 22  2  1  0
 14  8  1  0
 21 15  1  0
M  END
>  <linear_selectivity>  (55) 
39

>  <denticity>  (55) 
1

>  <ligand_class>  (55) 
phosphine

$$$$
P(o-Tol)3_120C_THF
     RDKit          2D

 22 24  0  0  0  0  0  0  0  0999 V2000
    4.5000   -2.5981    0.0000 C   0  0  0  0  0  0  0  0  0  0  0  0
    3.0000   -2.5981    0.0000 C   0  0  0  0  0  0  0  0  0  0  0  0
    2.2500   -3.8971    0.0000 C   0  0  0  0  0  0  0  0  0  0  0  0
    0.7500   -3.8971    0.0000 C   0  0  0  0  0  0  0  0  0  0  0  0
   -0.0000   -2.5981    0.0000 C   0  0  0  0  0  0  0  0  0  0  0  0
    0.7500   -1.2990    0.0000 C   0  0  0  0  0  0  0  0  0  0  0  0
    0.0000    0.0000    0.0000 P   0  0  0  0  0  0  0  0  0  0  0  0
    0.7500    1.2990    0.0000 C   0  0  0  0  0  0  0  0  0  0  0  0
    2.2500    1.2990    0.0000 C   0  0  0  0  0  0  0  0  0  0  0  0
    3.0000    2.5981    0.0000 C   0  0  0  0  0  0  0  0  0  0  0  0
    2.2500    3.8971    0.0000 C   0  0  0  0  0  0  0  0  0  0  0  0
    0.7500    3.8971    0.0000 C   0  0  0  0  0  0  0  0  0  0  0  0
    0.0000    5.1962    0.0000 C   0  0  0  0  0  0  0  0  0  0  0  0
    0.0000    2.5981    0.0000 C   0  0  0  0  0  0  0  0  0  0  0  0
   -1.5000    0.0000    0.0000 C   0  0  0  0  0  0  0  0  0  0  0  0
   -2.2500    1.2990    0.0000 C   0  0  0  0  0  0  0  0  0  0  0  0
   -3.7500    1.2990    0.0000 C   0  0  0  0  0  0  0  0  0  0  0  0
   -4.5000    0.0000    0.0000 C   0  0  0  0  0  0  0  0  0  0  0  0
   -3.7500   -1.2990    0.0000 C   0  0  0  0  0  0  0  0  0  0  0  0
   -4.5000   -2.5981    0.0000 C   0  0  0  0  0  0  0  0  0  0  0  0
   -2.2500   -1.2990    0.0000 C   0  0  0  0  0  0  0  0  0  0  0  0
    2.2500   -1.2990    0.0000 C   0  0  0  0  0  0  0  0  0  0  0  0
  1  2  1  0
  2  3  2  0
  3  4  1  0
  4  5  2  0
  5  6  1  0
  6  7  1  0
  7  8  1  0
  8  9  2  0
  9 10  1  0
 10 11  2  0
 11 12  1  0
 12 13  1  0
 12 14  2  0
  7 15  1  0
 15 16  2  0
 16 17  1  0
 17 18  2  0
 18 19  1  0
 19 20  1  0
 19 21  2  0
  6 22  2  0
 22  2  1  0
 14  8  1  0
 21 15  1  0
M  END
>  <linear_selectivity>  (56) 
35

>  <denticity>  (56) 
1

>  <ligand_class>  (56) 
phosphine

$$$$
P(o-Tol)3_120C_dioxane
     RDKit          2D

 22 24  0  0  0  0  0  0  0  0999 V2000
    4.5000   -2.5981    0.0000 C   0  0  0  0  0  0  0  0  0  0  0  0
    3.0000   -2.5981    0.0000 C   0  0  0  0  0  0  0  0  0  0  0  0
    2.2500   -3.8971    0.0000 C   0  0  0  0  0  0  0  0  0  0  0  0
    0.7500   -3.8971    0.0000 C   0  0  0  0  0  0  0  0  0  0  0  0
   -0.0000   -2.5981    0.0000 C   0  0  0  0  0  0  0  0  0  0  0  0
    0.7500   -1.2990    0.0000 C   0  0  0  0  0  0  0  0  0  0  0  0
    0.0000    0.0000    0.0000 P   0  0  0  0  0  0  0  0  0  0  0  0
    0.7500    1.2990    0.0000 C   0  0  0  0  0  0  0  0  0  0  0  0
    2.2500    1.2990    0.0000 C   0  0  0  0  0  0  0  0  0  0  0  0
    3.0000    2.5981    0.0000 C   0  0  0  0  0  0  0  0  0  0  0  0
    2.2500    3.8971    0.0000 C   0  0  0  0  0  0  0  0  0  0  0  0
    0.7500    3.8971    0.0000 C   0  0  0  0  0  0  0  0  0  0  0  0
    0.0000    5.1962    0.0000 C   0  0  0  0  0  0  0  0  0  0  0  0
    0.0000    2.5981    0.0000 C   0  0  0  0  0  0  0  0  0  0  0  0
   -1.5000    0.0000    0.0000 C   0  0  0  0  0  0  0  0  0  0  0  0
   -2.2500    1.2990    0.0000 C   0  0  0  0  0  0  0  0  0  0  0  0
   -3.7500    1.2990    0.0000 C   0  0  0  0  0  0  0  0  0  0  0  0
   -4.5000    0.0000    0.0000 C   0  0  0  0  0  0  0  0  0  0  0  0
   -3.7500   -1.2990    0.0000 C   0  0  0  0  0  0  0  0  0  0  0  0
   -4.5000   -2.5981    0.0000 C   0  0  0  0  0  0  0  0  0  0  0  0
   -2.2500   -1.2990    0.0000 C   0  0  0  0  0  0  0  0  0  0  0  0
    2.2500   -1.2990    0.0000 C   0  0  0  0  0  0  0  0  0  0  0  0
  1  2  1  0
  2  3  2  0
  3  4  1  0
  4  5  2  0
  5  6  1  0
  6  7  1  0
  7  8  1  0
  8  9  2  0
  9 10  1  0
 10 11  2  0
 11 12  1  0
 12 13  1  0
 12 14  2  0
  7 15  1  0
 15 16  2  0
 16 17  1  0
 17 18  2  0
 18 19  1  0
 19 20  1  0
 19 21  2  0
  6 22  2  0
 22  2  1  0
 14  8  1  0
 21 15  1  0
M  END
>  <linear_selectivity>  (57) 
36

>  <denticity>  (57) 
1

>  <ligand_class>  (57) 
phosphine

$$$$
P(o-Tol)3_120C_hexane
     RDKit          2D

 22 24  0  0  0  0  0  0  0  0999 V2000
    4.5000   -2.5981    0.0000 C   0  0  0  0  0  0  0  0  0  0  0  0
    3.0000   -2.5981    0.0000 C   0  0  0  0  0  0  0  0  0  0  0  0
    2.2500   -3.8971    0.0000 C   0  0  0  0  0  0  0  0  0  0  0  0
    0.7500   -3.8971    0.0000 C   0  0  0  0  0  0  0  0  0  0  0  0
   -0.0000   -2.5981    0.0000 C   0  0  0  0  0  0  0  0  0  0  0  0
    0.7500   -1.2990    0.0000 C   0  0  0  0  0  0  0  0  0  0  0  0
    0.0000    0.0000    0.0000 P   0  0  0  0  0  0  0  0  0  0  0  0
    0.7500    1.2990    0.0000 C   0  0  0  0  0  0  0  0  0  0  0  0
    2.2500    1.2990    0.0000 C   0  0  0  0  0  0  0  0  0  0  0  0
    3.0000    2.5981    0.0000 C   0  0  0  0  0  0  0  0  0  0  0  0
    2.2500    3.8971    0.0000 C   0  0  0  0  0  0  0  0  0  0  0  0
    0.7500    3.8971    0.0000 C   0  0  0  0  0  0  0  0  0  0  0  0
    0.0000    5.1962    0.0000 C   0  0  0  0  0  0  0  0  0  0  0  0
    0.0000    2.5981    0.0000 C   0  0  0  0  0  0  0  0  0  0  0  0
   -1.5000    0.0000    0.0000 C   0  0  0  0  0  0  0  0  0  0  0  0
   -2.2500    1.2990    0.0000 C   0  0  0  0  0  0  0  0  0  0  0  0
   -3.7500    1.2990    0.0000 C   0  0  0  0  0  0  0  0  0  0  0  0
   -4.5000    0.0000    0.0000 C   0  0  0  0  0  0  0  0  0  0  0  0
   -3.7500   -1.2990    0.0000 C   0  0  0  0  0  0  0  0  0  0  0  0
   -4.5000   -2.5981    0.0000 C   0  0  0  0  0  0  0  0  0  0  0  0
   -2.2500   -1.2990    0.0000 C   0  0  0  0  0  0  0  0  0  0  0  0
    2.2500   -1.2990    0.0000 C   0  0  0  0  0  0  0  0  0  0  0  0
  1  2  1  0
  2  3  2  0
  3  4  1  0
  4  5  2  0
  5  6  1  0
  6  7  1  0
  7  8  1  0
  8  9  2  0
  9 10  1  0
 10 11  2  0
 11 12  1  0
 12 13  1  0
 12 14  2  0
  7 15  1  0
 15 16  2  0
 16 17  1  0
 17 18  2  0
 18 19  1  0
 19 20  1  0
 19 21  2  0
  6 22  2  0
 22  2  1  0
 14  8  1  0
 21 15  1  0
M  END
>  <linear_selectivity>  (58) 
45

>  <denticity>  (58) 
1

>  <ligand_class>  (58) 
phosphine

$$$$
P(o-Tol)3_120C_xylene
     RDKit          2D

 22 24  0  0  0  0  0  0  0  0999 V2000
    4.5000   -2.5981    0.0000 C   0  0  0  0  0  0  0  0  0  0  0  0
    3.0000   -2.5981    0.0000 C   0  0  0  0  0  0  0  0  0  0  0  0
    2.2500   -3.8971    0.0000 C   0  0  0  0  0  0  0  0  0  0  0  0
    0.7500   -3.8971    0.0000 C   0  0  0  0  0  0  0  0  0  0  0  0
   -0.0000   -2.5981    0.0000 C   0  0  0  0  0  0  0  0  0  0  0  0
    0.7500   -1.2990    0.0000 C   0  0  0  0  0  0  0  0  0  0  0  0
    0.0000    0.0000    0.0000 P   0  0  0  0  0  0  0  0  0  0  0  0
    0.7500    1.2990    0.0000 C   0  0  0  0  0  0  0  0  0  0  0  0
    2.2500    1.2990    0.0000 C   0  0  0  0  0  0  0  0  0  0  0  0
    3.0000    2.5981    0.0000 C   0  0  0  0  0  0  0  0  0  0  0  0
    2.2500    3.8971    0.0000 C   0  0  0  0  0  0  0  0  0  0  0  0
    0.7500    3.8971    0.0000 C   0  0  0  0  0  0  0  0  0  0  0  0
    0.0000    5.1962    0.0000 C   0  0  0  0  0  0  0  0  0  0  0  0
    0.0000    2.5981    0.0000 C   0  0  0  0  0  0  0  0  0  0  0  0
   -1.5000    0.0000    0.0000 C   0  0  0  0  0  0  0  0  0  0  0  0
   -2.2500    1.2990    0.0000 C   0  0  0  0  0  0  0  0  0  0  0  0
   -3.7500    1.2990    0.0000 C   0  0  0  0  0  0  0  0  0  0  0  0
   -4.5000    0.0000    0.0000 C   0  0  0  0  0  0  0  0  0  0  0  0
   -3.7500   -1.2990    0.0000 C   0  0  0  0  0  0  0  0  0  0  0  0
   -4.5000   -2.5981    0.0000 C   0  0  0  0  0  0  0  0  0  0  0  0
   -2.2500   -1.2990    0.0000 C   0  0  0  0  0  0  0  0  0  0  0  0
    2.2500   -1.2990    0.0000 C   0  0  0  0  0  0  0  0  0  0  0  0
  1  2  1  0
  2  3  2  0
  3  4  1  0
  4  5  2  0
  5  6  1  0
  6  7  1  0
  7  8  1  0
  8  9  2  0
  9 10  1  0
 10 11  2  0
 11 12  1  0
 12 13  1  0
 12 14  2  0
  7 15  1  0
 15 16  2  0
 16 17  1  0
 17 18  2  0
 18 19  1  0
 19 20  1  0
 19 21  2  0
  6 22  2  0
 22  2  1  0
 14  8  1  0
 21 15  1  0
M  END
>  <linear_selectivity>  (59) 
42

>  <denticity>  (59) 
1

>  <ligand_class>  (59) 
phosphine

$$$$
P(o-Tol)3_130C_toluene
     RDKit          2D

 22 24  0  0  0  0  0  0  0  0999 V2000
    4.5000   -2.5981    0.0000 C   0  0  0  0  0  0  0  0  0  0  0  0
    3.0000   -2.5981    0.0000 C   0  0  0  0  0  0  0  0  0  0  0  0
    2.2500   -3.8971    0.0000 C   0  0  0  0  0  0  0  0  0  0  0  0
    0.7500   -3.8971    0.0000 C   0  0  0  0  0  0  0  0  0  0  0  0
   -0.0000   -2.5981    0.0000 C   0  0  0  0  0  0  0  0  0  0  0  0
    0.7500   -1.2990    0.0000 C   0  0  0  0  0  0  0  0  0  0  0  0
    0.0000    0.0000    0.0000 P   0  0  0  0  0  0  0  0  0  0  0  0
    0.7500    1.2990    0.0000 C   0  0  0  0  0  0  0  0  0  0  0  0
    2.2500    1.2990    0.0000 C   0  0  0  0  0  0  0  0  0  0  0  0
    3.0000    2.5981    0.0000 C   0  0  0  0  0  0  0  0  0  0  0  0
    2.2500    3.8971    0.0000 C   0  0  0  0  0  0  0  0  0  0  0  0
    0.7500    3.8971    0.0000 C   0  0  0  0  0  0  0  0  0  0  0  0
    0.0000    5.1962    0.0000 C   0  0  0  0  0  0  0  0  0  0  0  0
    0.0000    2.5981    0.0000 C   0  0  0  0  0  0  0  0  0  0  0  0
   -1.5000    0.0000    0.0000 C   0  0  0  0  0  0  0  0  0  0  0  0
   -2.2500    1.2990    0.0000 C   0  0  0  0  0  0  0  0  0  0  0  0
   -3.7500    1.2990    0.0000 C   0  0  0  0  0  0  0  0  0  0  0  0
   -4.5000    0.0000    0.0000 C   0  0  0  0  0  0  0  0  0  0  0  0
   -3.7500   -1.2990    0.0000 C   0  0  0  0  0  0  0  0  0  0  0  0
   -4.5000   -2.5981    0.0000 C   0  0  0  0  0  0  0  0  0  0  0  0
   -2.2500   -1.2990    0.0000 C   0  0  0  0  0  0  0  0  0  0  0  0
    2.2500   -1.2990    0.0000 C   0  0  0  0  0  0  0  0  0  0  0  0
  1  2  1  0
  2  3  2  0
  3  4  1  0
  4  5  2  0
  5  6  1  0
  6  7  1  0
  7  8  1  0
  8  9  2  0
  9 10  1  0
 10 11  2  0
 11 12  1  0
 12 13  1  0
 12 14  2  0
  7 15  1  0
 15 16  2  0
 16 17  1  0
 17 18  2  0
 18 19  1  0
 19 20  1  0
 19 21  2  0
  6 22  2  0
 22  2  1  0
 14  8  1  0
 21 15  1  0
M  END
>  <linear_selectivity>  (60) 
38

>  <denticity>  (60) 
1

>  <ligand_class>  (60) 
phosphine

$$$$
P(o-Tol)3_130C_dioxane
     RDKit          2D

 22 24  0  0  0  0  0  0  0  0999 V2000
    4.5000   -2.5981    0.0000 C   0  0  0  0  0  0  0  0  0  0  0  0
    3.0000   -2.5981    0.0000 C   0  0  0  0  0  0  0  0  0  0  0  0
    2.2500   -3.8971    0.0000 C   0  0  0  0  0  0  0  0  0  0  0  0
    0.7500   -3.8971    0.0000 C   0  0  0  0  0  0  0  0  0  0  0  0
   -0.0000   -2.5981    0.0000 C   0  0  0  0  0  0  0  0  0  0  0  0
    0.7500   -1.2990    0.0000 C   0  0  0  0  0  0  0  0  0  0  0  0
    0.0000    0.0000    0.0000 P   0  0  0  0  0  0  0  0  0  0  0  0
    0.7500    1.2990    0.0000 C   0  0  0  0  0  0  0  0  0  0  0  0
    2.2500    1.2990    0.0000 C   0  0  0  0  0  0  0  0  0  0  0  0
    3.0000    2.5981    0.0000 C   0  0  0  0  0  0  0  0  0  0  0  0
    2.2500    3.8971    0.0000 C   0  0  0  0  0  0  0  0  0  0  0  0
    0.7500    3.8971    0.0000 C   0  0  0  0  0  0  0  0  0  0  0  0
    0.0000    5.1962    0.0000 C   0  0  0  0  0  0  0  0  0  0  0  0
    0.0000    2.5981    0.0000 C   0  0  0  0  0  0  0  0  0  0  0  0
   -1.5000    0.0000    0.0000 C   0  0  0  0  0  0  0  0  0  0  0  0
   -2.2500    1.2990    0.0000 C   0  0  0  0  0  0  0  0  0  0  0  0
   -3.7500    1.2990    0.0000 C   0  0  0  0  0  0  0  0  0  0  0  0
   -4.5000    0.0000    0.0000 C   0  0  0  0  0  0  0  0  0  0  0  0
   -3.7500   -1.2990    0.0000 C   0  0  0  0  0  0  0  0  0  0  0  0
   -4.5000   -2.5981    0.0000 C   0  0  0  0  0  0  0  0  0  0  0  0
   -2.2500   -1.2990    0.0000 C   0  0  0  0  0  0  0  0  0  0  0  0
    2.2500   -1.2990    0.0000 C   0  0  0  0  0  0  0  0  0  0  0  0
  1  2  1  0
  2  3  2  0
  3  4  1  0
  4  5  2  0
  5  6  1  0
  6  7  1  0
  7  8  1  0
  8  9  2  0
  9 10  1  0
 10 11  2  0
 11 12  1  0
 12 13  1  0
 12 14  2  0
  7 15  1  0
 15 16  2  0
 16 17  1  0
 17 18  2  0
 18 19  1  0
 19 20  1  0
 19 21  2  0
  6 22  2  0
 22  2  1  0
 14  8  1  0
 21 15  1  0
M  END
>  <linear_selectivity>  (61) 
40

>  <denticity>  (61) 
1

>  <ligand_class>  (61) 
phosphine

$$$$
P(o-Tol)3_130C_hexane
     RDKit          2D

 22 24  0  0  0  0  0  0  0  0999 V2000
    4.5000   -2.5981    0.0000 C   0  0  0  0  0  0  0  0  0  0  0  0
    3.0000   -2.5981    0.0000 C   0  0  0  0  0  0  0  0  0  0  0  0
    2.2500   -3.8971    0.0000 C   0  0  0  0  0  0  0  0  0  0  0  0
    0.7500   -3.8971    0.0000 C   0  0  0  0  0  0  0  0  0  0  0  0
   -0.0000   -2.5981    0.0000 C   0  0  0  0  0  0  0  0  0  0  0  0
    0.7500   -1.2990    0.0000 C   0  0  0  0  0  0  0  0  0  0  0  0
    0.0000    0.0000    0.0000 P   0  0  0  0  0  0  0  0  0  0  0  0
    0.7500    1.2990    0.0000 C   0  0  0  0  0  0  0  0  0  0  0  0
    2.2500    1.2990    0.0000 C   0  0  0  0  0  0  0  0  0  0  0  0
    3.0000    2.5981    0.0000 C   0  0  0  0  0  0  0  0  0  0  0  0
    2.2500    3.8971    0.0000 C   0  0  0  0  0  0  0  0  0  0  0  0
    0.7500    3.8971    0.0000 C   0  0  0  0  0  0  0  0  0  0  0  0
    0.0000    5.1962    0.0000 C   0  0  0  0  0  0  0  0  0  0  0  0
    0.0000    2.5981    0.0000 C   0  0  0  0  0  0  0  0  0  0  0  0
   -1.5000    0.0000    0.0000 C   0  0  0  0  0  0  0  0  0  0  0  0
   -2.2500    1.2990    0.0000 C   0  0  0  0  0  0  0  0  0  0  0  0
   -3.7500    1.2990    0.0000 C   0  0  0  0  0  0  0  0  0  0  0  0
   -4.5000    0.0000    0.0000 C   0  0  0  0  0  0  0  0  0  0  0  0
   -3.7500   -1.2990    0.0000 C   0  0  0  0  0  0  0  0  0  0  0  0
   -4.5000   -2.5981    0.0000 C   0  0  0  0  0  0  0  0  0  0  0  0
   -2.2500   -1.2990    0.0000 C   0  0  0  0  0  0  0  0  0  0  0  0
    2.2500   -1.2990    0.0000 C   0  0  0  0  0  0  0  0  0  0  0  0
  1  2  1  0
  2  3  2  0
  3  4  1  0
  4  5  2  0
  5  6  1  0
  6  7  1  0
  7  8  1  0
  8  9  2  0
  9 10  1  0
 10 11  2  0
 11 12  1  0
 12 13  1  0
 12 14  2  0
  7 15  1  0
 15 16  2  0
 16 17  1  0
 17 18  2  0
 18 19  1  0
 19 20  1  0
 19 21  2  0
  6 22  2  0
 22  2  1  0
 14  8  1  0
 21 15  1  0
M  END
>  <linear_selectivity>  (62) 
42

>  <denticity>  (62) 
1

>  <ligand_class>  (62) 
phosphine

$$$$
P(o-Tol)3_130C_benzene
     RDKit          2D

 22 24  0  0  0  0  0  0  0  0999 V2000
    4.5000   -2.5981    0.0000 C   0  0  0  0  0  0  0  0  0  0  0  0
    3.0000   -2.5981    0.0000 C   0  0  0  0  0  0  0  0  0  0  0  0
    2.2500   -3.8971    0.0000 C   0  0  0  0  0  0  0  0  0  0  0  0
    0.7500   -3.8971    0.0000 C   0  0  0  0  0  0  0  0  0  0  0  0
   -0.0000   -2.5981    0.0000 C   0  0  0  0  0  0  0  0  0  0  0  0
    0.7500   -1.2990    0.0000 C   0  0  0  0  0  0  0  0  0  0  0  0
    0.0000    0.0000    0.0000 P   0  0  0  0  0  0  0  0  0  0  0  0
    0.7500    1.2990    0.0000 C   0  0  0  0  0  0  0  0  0  0  0  0
    2.2500    1.2990    0.0000 C   0  0  0  0  0  0  0  0  0  0  0  0
    3.0000    2.5981    0.0000 C   0  0  0  0  0  0  0  0  0  0  0  0
    2.2500    3.8971    0.0000 C   0  0  0  0  0  0  0  0  0  0  0  0
    0.7500    3.8971    0.0000 C   0  0  0  0  0  0  0  0  0  0  0  0
    0.0000    5.1962    0.0000 C   0  0  0  0  0  0  0  0  0  0  0  0
    0.0000    2.5981    0.0000 C   0  0  0  0  0  0  0  0  0  0  0  0
   -1.5000    0.0000    0.0000 C   0  0  0  0  0  0  0  0  0  0  0  0
   -2.2500    1.2990    0.0000 C   0  0  0  0  0  0  0  0  0  0  0  0
   -3.7500    1.2990    0.0000 C   0  0  0  0  0  0  0  0  0  0  0  0
   -4.5000    0.0000    0.0000 C   0  0  0  0  0  0  0  0  0  0  0  0
   -3.7500   -1.2990    0.0000 C   0  0  0  0  0  0  0  0  0  0  0  0
   -4.5000   -2.5981    0.0000 C   0  0  0  0  0  0  0  0  0  0  0  0
   -2.2500   -1.2990    0.0000 C   0  0  0  0  0  0  0  0  0  0  0  0
    2.2500   -1.2990    0.0000 C   0  0  0  0  0  0  0  0  0  0  0  0
  1  2  1  0
  2  3  2  0
  3  4  1  0
  4  5  2  0
  5  6  1  0
  6  7  1  0
  7  8  1  0
  8  9  2  0
  9 10  1  0
 10 11  2  0
 11 12  1  0
 12 13  1  0
 12 14  2  0
  7 15  1  0
 15 16  2  0
 16 17  1  0
 17 18  2  0
 18 19  1  0
 19 20  1  0
 19 21  2  0
  6 22  2  0
 22  2  1  0
 14  8  1  0
 21 15  1  0
M  END
>  <linear_selectivity>  (63) 
38

>  <denticity>  (63) 
1

>  <ligand_class>  (63) 
phosphine

$$$$
P(o-Tol)3_130C_xylene
     RDKit          2D

 22 24  0  0  0  0  0  0  0  0999 V2000
    4.5000   -2.5981    0.0000 C   0  0  0  0  0  0  0  0  0  0  0  0
    3.0000   -2.5981    0.0000 C   0  0  0  0  0  0  0  0  0  0  0  0
    2.2500   -3.8971    0.0000 C   0  0  0  0  0  0  0  0  0  0  0  0
    0.7500   -3.8971    0.0000 C   0  0  0  0  0  0  0  0  0  0  0  0
   -0.0000   -2.5981    0.0000 C   0  0  0  0  0  0  0  0  0  0  0  0
    0.7500   -1.2990    0.0000 C   0  0  0  0  0  0  0  0  0  0  0  0
    0.0000    0.0000    0.0000 P   0  0  0  0  0  0  0  0  0  0  0  0
    0.7500    1.2990    0.0000 C   0  0  0  0  0  0  0  0  0  0  0  0
    2.2500    1.2990    0.0000 C   0  0  0  0  0  0  0  0  0  0  0  0
    3.0000    2.5981    0.0000 C   0  0  0  0  0  0  0  0  0  0  0  0
    2.2500    3.8971    0.0000 C   0  0  0  0  0  0  0  0  0  0  0  0
    0.7500    3.8971    0.0000 C   0  0  0  0  0  0  0  0  0  0  0  0
    0.0000    5.1962    0.0000 C   0  0  0  0  0  0  0  0  0  0  0  0
    0.0000    2.5981    0.0000 C   0  0  0  0  0  0  0  0  0  0  0  0
   -1.5000    0.0000    0.0000 C   0  0  0  0  0  0  0  0  0  0  0  0
   -2.2500    1.2990    0.0000 C   0  0  0  0  0  0  0  0  0  0  0  0
   -3.7500    1.2990    0.0000 C   0  0  0  0  0  0  0  0  0  0  0  0
   -4.5000    0.0000    0.0000 C   0  0  0  0  0  0  0  0  0  0  0  0
   -3.7500   -1.2990    0.0000 C   0  0  0  0  0  0  0  0  0  0  0  0
   -4.5000   -2.5981    0.0000 C   0  0  0  0  0  0  0  0  0  0  0  0
   -2.2500   -1.2990    0.0000 C   0  0  0  0  0  0  0  0  0  0  0  0
    2.2500   -1.2990    0.0000 C   0  0  0  0  0  0  0  0  0  0  0  0
  1  2  1  0
  2  3  2  0
  3  4  1  0
  4  5  2  0
  5  6  1  0
  6  7  1  0
  7  8  1  0
  8  9  2  0
  9 10  1  0
 10 11  2  0
 11 12  1  0
 12 13  1  0
 12 14  2  0
  7 15  1  0
 15 16  2  0
 16 17  1  0
 17 18  2  0
 18 19  1  0
 19 20  1  0
 19 21  2  0
  6 22  2  0
 22  2  1  0
 14  8  1  0
 21 15  1  0
M  END
>  <linear_selectivity>  (64) 
37

>  <denticity>  (64) 
1

>  <ligand_class>  (64) 
phosphine

$$$$
P(p-Tol)3
     RDKit          2D

 22 24  0  0  0  0  0  0  0  0999 V2000
    6.0000   -0.0000    0.0000 C   0  0  0  0  0  0  0  0  0  0  0  0
    4.5000   -0.0000    0.0000 C   0  0  0  0  0  0  0  0  0  0  0  0
    3.7500   -1.2990    0.0000 C   0  0  0  0  0  0  0  0  0  0  0  0
    2.2500   -1.2990    0.0000 C   0  0  0  0  0  0  0  0  0  0  0  0
    1.5000   -0.0000    0.0000 C   0  0  0  0  0  0  0  0  0  0  0  0
    0.0000   -0.0000    0.0000 P   0  0  0  0  0  0  0  0  0  0  0  0
   -0.7500    1.2990    0.0000 C   0  0  0  0  0  0  0  0  0  0  0  0
    0.0000    2.5981    0.0000 C   0  0  0  0  0  0  0  0  0  0  0  0
   -0.7500    3.8971    0.0000 C   0  0  0  0  0  0  0  0  0  0  0  0
   -2.2500    3.8971    0.0000 C   0  0  0  0  0  0  0  0  0  0  0  0
   -3.0000    5.1962    0.0000 C   0  0  0  0  0  0  0  0  0  0  0  0
   -3.0000    2.5981    0.0000 C   0  0  0  0  0  0  0  0  0  0  0  0
   -2.2500    1.2990    0.0000 C   0  0  0  0  0  0  0  0  0  0  0  0
   -0.7500   -1.2990    0.0000 C   0  0  0  0  0  0  0  0  0  0  0  0
   -2.2500   -1.2990    0.0000 C   0  0  0  0  0  0  0  0  0  0  0  0
   -3.0000   -2.5981    0.0000 C   0  0  0  0  0  0  0  0  0  0  0  0
   -2.2500   -3.8971    0.0000 C   0  0  0  0  0  0  0  0  0  0  0  0
   -3.0000   -5.1962    0.0000 C   0  0  0  0  0  0  0  0  0  0  0  0
   -0.7500   -3.8971    0.0000 C   0  0  0  0  0  0  0  0  0  0  0  0
   -0.0000   -2.5981    0.0000 C   0  0  0  0  0  0  0  0  0  0  0  0
    2.2500    1.2990    0.0000 C   0  0  0  0  0  0  0  0  0  0  0  0
    3.7500    1.2990    0.0000 C   0  0  0  0  0  0  0  0  0  0  0  0
  1  2  1  0
  2  3  2  0
  3  4  1  0
  4  5  2  0
  5  6  1  0
  6  7  1  0
  7  8  2  0
  8  9  1  0
  9 10  2  0
 10 11  1  0
 10 12  1  0
 12 13  2  0
  6 14  1  0
 14 15  2  0
 15 16  1  0
 16 17  2  0
 17 18  1  0
 17 19  1  0
 19 20  2  0
  5 21  1  0
 21 22  2  0
 22  2  1  0
 13  7  1  0
 20 14  1  0
M  END
>  <linear_selectivity>  (65) 
28

>  <denticity>  (65) 
1

>  <ligand_class>  (65) 
phosphine

$$$$
P(p-Tol)3_70C_toluene
     RDKit          2D

 22 24  0  0  0  0  0  0  0  0999 V2000
    6.0000   -0.0000    0.0000 C   0  0  0  0  0  0  0  0  0  0  0  0
    4.5000   -0.0000    0.0000 C   0  0  0  0  0  0  0  0  0  0  0  0
    3.7500   -1.2990    0.0000 C   0  0  0  0  0  0  0  0  0  0  0  0
    2.2500   -1.2990    0.0000 C   0  0  0  0  0  0  0  0  0  0  0  0
    1.5000   -0.0000    0.0000 C   0  0  0  0  0  0  0  0  0  0  0  0
    0.0000   -0.0000    0.0000 P   0  0  0  0  0  0  0  0  0  0  0  0
   -0.7500    1.2990    0.0000 C   0  0  0  0  0  0  0  0  0  0  0  0
    0.0000    2.5981    0.0000 C   0  0  0  0  0  0  0  0  0  0  0  0
   -0.7500    3.8971    0.0000 C   0  0  0  0  0  0  0  0  0  0  0  0
   -2.2500    3.8971    0.0000 C   0  0  0  0  0  0  0  0  0  0  0  0
   -3.0000    5.1962    0.0000 C   0  0  0  0  0  0  0  0  0  0  0  0
   -3.0000    2.5981    0.0000 C   0  0  0  0  0  0  0  0  0  0  0  0
   -2.2500    1.2990    0.0000 C   0  0  0  0  0  0  0  0  0  0  0  0
   -0.7500   -1.2990    0.0000 C   0  0  0  0  0  0  0  0  0  0  0  0
   -2.2500   -1.2990    0.0000 C   0  0  0  0  0  0  0  0  0  0  0  0
   -3.0000   -2.5981    0.0000 C   0  0  0  0  0  0  0  0  0  0  0  0
   -2.2500   -3.8971    0.0000 C   0  0  0  0  0  0  0  0  0  0  0  0
   -3.0000   -5.1962    0.0000 C   0  0  0  0  0  0  0  0  0  0  0  0
   -0.7500   -3.8971    0.0000 C   0  0  0  0  0  0  0  0  0  0  0  0
   -0.0000   -2.5981    0.0000 C   0  0  0  0  0  0  0  0  0  0  0  0
    2.2500    1.2990    0.0000 C   0  0  0  0  0  0  0  0  0  0  0  0
    3.7500    1.2990    0.0000 C   0  0  0  0  0  0  0  0  0  0  0  0
  1  2  1  0
  2  3  2  0
  3  4  1  0
  4  5  2  0
  5  6  1  0
  6  7  1  0
  7  8  2  0
  8  9  1  0
  9 10  2  0
 10 11  1  0
 10 12  1  0
 12 13  2  0
  6 14  1  0
 14 15  2  0
 15 16  1  0
 16 17  2  0
 17 18  1  0
 17 19  1  0
 19 20  2  0
  5 21  1  0
 21 22  2  0
 22  2  1  0
 13  7  1  0
 20 14  1  0
M  END
>  <linear_selectivity>  (66) 
29

>  <denticity>  (66) 
1

>  <ligand_class>  (66) 
phosphine

$$$$
P(p-Tol)3_70C_benzene
     RDKit          2D

 22 24  0  0  0  0  0  0  0  0999 V2000
    6.0000   -0.0000    0.0000 C   0  0  0  0  0  0  0  0  0  0  0  0
    4.5000   -0.0000    0.0000 C   0  0  0  0  0  0  0  0  0  0  0  0
    3.7500   -1.2990    0.0000 C   0  0  0  0  0  0  0  0  0  0  0  0
    2.2500   -1.2990    0.0000 C   0  0  0  0  0  0  0  0  0  0  0  0
    1.5000   -0.0000    0.0000 C   0  0  0  0  0  0  0  0  0  0  0  0
    0.0000   -0.0000    0.0000 P   0  0  0  0  0  0  0  0  0  0  0  0
   -0.7500    1.2990    0.0000 C   0  0  0  0  0  0  0  0  0  0  0  0
    0.0000    2.5981    0.0000 C   0  0  0  0  0  0  0  0  0  0  0  0
   -0.7500    3.8971    0.0000 C   0  0  0  0  0  0  0  0  0  0  0  0
   -2.2500    3.8971    0.0000 C   0  0  0  0  0  0  0  0  0  0  0  0
   -3.0000    5.1962    0.0000 C   0  0  0  0  0  0  0  0  0  0  0  0
   -3.0000    2.5981    0.0000 C   0  0  0  0  0  0  0  0  0  0  0  0
   -2.2500    1.2990    0.0000 C   0  0  0  0  0  0  0  0  0  0  0  0
   -0.7500   -1.2990    0.0000 C   0  0  0  0  0  0  0  0  0  0  0  0
   -2.2500   -1.2990    0.0000 C   0  0  0  0  0  0  0  0  0  0  0  0
   -3.0000   -2.5981    0.0000 C   0  0  0  0  0  0  0  0  0  0  0  0
   -2.2500   -3.8971    0.0000 C   0  0  0  0  0  0  0  0  0  0  0  0
   -3.0000   -5.1962    0.0000 C   0  0  0  0  0  0  0  0  0  0  0  0
   -0.7500   -3.8971    0.0000 C   0  0  0  0  0  0  0  0  0  0  0  0
   -0.0000   -2.5981    0.0000 C   0  0  0  0  0  0  0  0  0  0  0  0
    2.2500    1.2990    0.0000 C   0  0  0  0  0  0  0  0  0  0  0  0
    3.7500    1.2990    0.0000 C   0  0  0  0  0  0  0  0  0  0  0  0
  1  2  1  0
  2  3  2  0
  3  4  1  0
  4  5  2  0
  5  6  1  0
  6  7  1  0
  7  8  2  0
  8  9  1  0
  9 10  2  0
 10 11  1  0
 10 12  1  0
 12 13  2  0
  6 14  1  0
 14 15  2  0
 15 16  1  0
 16 17  2  0
 17 18  1  0
 17 19  1  0
 19 20  2  0
  5 21  1  0
 21 22  2  0
 22  2  1  0
 13  7  1  0
 20 14  1  0
M  END
>  <linear_selectivity>  (67) 
29

>  <denticity>  (67) 
1

>  <ligand_class>  (67) 
phosphine

$$$$
P(p-Tol)3_70C_xylene
     RDKit          2D

 22 24  0  0  0  0  0  0  0  0999 V2000
    6.0000   -0.0000    0.0000 C   0  0  0  0  0  0  0  0  0  0  0  0
    4.5000   -0.0000    0.0000 C   0  0  0  0  0  0  0  0  0  0  0  0
    3.7500   -1.2990    0.0000 C   0  0  0  0  0  0  0  0  0  0  0  0
    2.2500   -1.2990    0.0000 C   0  0  0  0  0  0  0  0  0  0  0  0
    1.5000   -0.0000    0.0000 C   0  0  0  0  0  0  0  0  0  0  0  0
    0.0000   -0.0000    0.0000 P   0  0  0  0  0  0  0  0  0  0  0  0
   -0.7500    1.2990    0.0000 C   0  0  0  0  0  0  0  0  0  0  0  0
    0.0000    2.5981    0.0000 C   0  0  0  0  0  0  0  0  0  0  0  0
   -0.7500    3.8971    0.0000 C   0  0  0  0  0  0  0  0  0  0  0  0
   -2.2500    3.8971    0.0000 C   0  0  0  0  0  0  0  0  0  0  0  0
   -3.0000    5.1962    0.0000 C   0  0  0  0  0  0  0  0  0  0  0  0
   -3.0000    2.5981    0.0000 C   0  0  0  0  0  0  0  0  0  0  0  0
   -2.2500    1.2990    0.0000 C   0  0  0  0  0  0  0  0  0  0  0  0
   -0.7500   -1.2990    0.0000 C   0  0  0  0  0  0  0  0  0  0  0  0
   -2.2500   -1.2990    0.0000 C   0  0  0  0  0  0  0  0  0  0  0  0
   -3.0000   -2.5981    0.0000 C   0  0  0  0  0  0  0  0  0  0  0  0
   -2.2500   -3.8971    0.0000 C   0  0  0  0  0  0  0  0  0  0  0  0
   -3.0000   -5.1962    0.0000 C   0  0  0  0  0  0  0  0  0  0  0  0
   -0.7500   -3.8971    0.0000 C   0  0  0  0  0  0  0  0  0  0  0  0
   -0.0000   -2.5981    0.0000 C   0  0  0  0  0  0  0  0  0  0  0  0
    2.2500    1.2990    0.0000 C   0  0  0  0  0  0  0  0  0  0  0  0
    3.7500    1.2990    0.0000 C   0  0  0  0  0  0  0  0  0  0  0  0
  1  2  1  0
  2  3  2  0
  3  4  1  0
  4  5  2  0
  5  6  1  0
  6  7  1  0
  7  8  2  0
  8  9  1  0
  9 10  2  0
 10 11  1  0
 10 12  1  0
 12 13  2  0
  6 14  1  0
 14 15  2  0
 15 16  1  0
 16 17  2  0
 17 18  1  0
 17 19  1  0
 19 20  2  0
  5 21  1  0
 21 22  2  0
 22  2  1  0
 13  7  1  0
 20 14  1  0
M  END
>  <linear_selectivity>  (68) 
32

>  <denticity>  (68) 
1

>  <ligand_class>  (68) 
phosphine

$$$$
P(p-Tol)3_80C_toluene
     RDKit          2D

 22 24  0  0  0  0  0  0  0  0999 V2000
    6.0000   -0.0000    0.0000 C   0  0  0  0  0  0  0  0  0  0  0  0
    4.5000   -0.0000    0.0000 C   0  0  0  0  0  0  0  0  0  0  0  0
    3.7500   -1.2990    0.0000 C   0  0  0  0  0  0  0  0  0  0  0  0
    2.2500   -1.2990    0.0000 C   0  0  0  0  0  0  0  0  0  0  0  0
    1.5000   -0.0000    0.0000 C   0  0  0  0  0  0  0  0  0  0  0  0
    0.0000   -0.0000    0.0000 P   0  0  0  0  0  0  0  0  0  0  0  0
   -0.7500    1.2990    0.0000 C   0  0  0  0  0  0  0  0  0  0  0  0
    0.0000    2.5981    0.0000 C   0  0  0  0  0  0  0  0  0  0  0  0
   -0.7500    3.8971    0.0000 C   0  0  0  0  0  0  0  0  0  0  0  0
   -2.2500    3.8971    0.0000 C   0  0  0  0  0  0  0  0  0  0  0  0
   -3.0000    5.1962    0.0000 C   0  0  0  0  0  0  0  0  0  0  0  0
   -3.0000    2.5981    0.0000 C   0  0  0  0  0  0  0  0  0  0  0  0
   -2.2500    1.2990    0.0000 C   0  0  0  0  0  0  0  0  0  0  0  0
   -0.7500   -1.2990    0.0000 C   0  0  0  0  0  0  0  0  0  0  0  0
   -2.2500   -1.2990    0.0000 C   0  0  0  0  0  0  0  0  0  0  0  0
   -3.0000   -2.5981    0.0000 C   0  0  0  0  0  0  0  0  0  0  0  0
   -2.2500   -3.8971    0.0000 C   0  0  0  0  0  0  0  0  0  0  0  0
   -3.0000   -5.1962    0.0000 C   0  0  0  0  0  0  0  0  0  0  0  0
   -0.7500   -3.8971    0.0000 C   0  0  0  0  0  0  0  0  0  0  0  0
   -0.0000   -2.5981    0.0000 C   0  0  0  0  0  0  0  0  0  0  0  0
    2.2500    1.2990    0.0000 C   0  0  0  0  0  0  0  0  0  0  0  0
    3.7500    1.2990    0.0000 C   0  0  0  0  0  0  0  0  0  0  0  0
  1  2  1  0
  2  3  2  0
  3  4  1  0
  4  5  2  0
  5  6  1  0
  6  7  1  0
  7  8  2  0
  8  9  1  0
  9 10  2  0
 10 11  1  0
 10 12  1  0
 12 13  2  0
  6 14  1  0
 14 15  2  0
 15 16  1  0
 16 17  2  0
 17 18  1  0
 17 19  1  0
 19 20  2  0
  5 21  1  0
 21 22  2  0
 22  2  1  0
 13  7  1  0
 20 14  1  0
M  END
>  <linear_selectivity>  (69) 
27

>  <denticity>  (69) 
1

>  <ligand_class>  (69) 
phosphine

$$$$
P(p-Tol)3_80C_THF
     RDKit          2D

 22 24  0  0  0  0  0  0  0  0999 V2000
    6.0000   -0.0000    0.0000 C   0  0  0  0  0  0  0  0  0  0  0  0
    4.5000   -0.0000    0.0000 C   0  0  0  0  0  0  0  0  0  0  0  0
    3.7500   -1.2990    0.0000 C   0  0  0  0  0  0  0  0  0  0  0  0
    2.2500   -1.2990    0.0000 C   0  0  0  0  0  0  0  0  0  0  0  0
    1.5000   -0.0000    0.0000 C   0  0  0  0  0  0  0  0  0  0  0  0
    0.0000   -0.0000    0.0000 P   0  0  0  0  0  0  0  0  0  0  0  0
   -0.7500    1.2990    0.0000 C   0  0  0  0  0  0  0  0  0  0  0  0
    0.0000    2.5981    0.0000 C   0  0  0  0  0  0  0  0  0  0  0  0
   -0.7500    3.8971    0.0000 C   0  0  0  0  0  0  0  0  0  0  0  0
   -2.2500    3.8971    0.0000 C   0  0  0  0  0  0  0  0  0  0  0  0
   -3.0000    5.1962    0.0000 C   0  0  0  0  0  0  0  0  0  0  0  0
   -3.0000    2.5981    0.0000 C   0  0  0  0  0  0  0  0  0  0  0  0
   -2.2500    1.2990    0.0000 C   0  0  0  0  0  0  0  0  0  0  0  0
   -0.7500   -1.2990    0.0000 C   0  0  0  0  0  0  0  0  0  0  0  0
   -2.2500   -1.2990    0.0000 C   0  0  0  0  0  0  0  0  0  0  0  0
   -3.0000   -2.5981    0.0000 C   0  0  0  0  0  0  0  0  0  0  0  0
   -2.2500   -3.8971    0.0000 C   0  0  0  0  0  0  0  0  0  0  0  0
   -3.0000   -5.1962    0.0000 C   0  0  0  0  0  0  0  0  0  0  0  0
   -0.7500   -3.8971    0.0000 C   0  0  0  0  0  0  0  0  0  0  0  0
   -0.0000   -2.5981    0.0000 C   0  0  0  0  0  0  0  0  0  0  0  0
    2.2500    1.2990    0.0000 C   0  0  0  0  0  0  0  0  0  0  0  0
    3.7500    1.2990    0.0000 C   0  0  0  0  0  0  0  0  0  0  0  0
  1  2  1  0
  2  3  2  0
  3  4  1  0
  4  5  2  0
  5  6  1  0
  6  7  1  0
  7  8  2  0
  8  9  1  0
  9 10  2  0
 10 11  1  0
 10 12  1  0
 12 13  2  0
  6 14  1  0
 14 15  2  0
 15 16  1  0
 16 17  2  0
 17 18  1  0
 17 19  1  0
 19 20  2  0
  5 21  1  0
 21 22  2  0
 22  2  1  0
 13  7  1  0
 20 14  1  0
M  END
>  <linear_selectivity>  (70) 
30

>  <denticity>  (70) 
1

>  <ligand_class>  (70) 
phosphine

$$$$
P(p-Tol)3_80C_dioxane
     RDKit          2D

 22 24  0  0  0  0  0  0  0  0999 V2000
    6.0000   -0.0000    0.0000 C   0  0  0  0  0  0  0  0  0  0  0  0
    4.5000   -0.0000    0.0000 C   0  0  0  0  0  0  0  0  0  0  0  0
    3.7500   -1.2990    0.0000 C   0  0  0  0  0  0  0  0  0  0  0  0
    2.2500   -1.2990    0.0000 C   0  0  0  0  0  0  0  0  0  0  0  0
    1.5000   -0.0000    0.0000 C   0  0  0  0  0  0  0  0  0  0  0  0
    0.0000   -0.0000    0.0000 P   0  0  0  0  0  0  0  0  0  0  0  0
   -0.7500    1.2990    0.0000 C   0  0  0  0  0  0  0  0  0  0  0  0
    0.0000    2.5981    0.0000 C   0  0  0  0  0  0  0  0  0  0  0  0
   -0.7500    3.8971    0.0000 C   0  0  0  0  0  0  0  0  0  0  0  0
   -2.2500    3.8971    0.0000 C   0  0  0  0  0  0  0  0  0  0  0  0
   -3.0000    5.1962    0.0000 C   0  0  0  0  0  0  0  0  0  0  0  0
   -3.0000    2.5981    0.0000 C   0  0  0  0  0  0  0  0  0  0  0  0
   -2.2500    1.2990    0.0000 C   0  0  0  0  0  0  0  0  0  0  0  0
   -0.7500   -1.2990    0.0000 C   0  0  0  0  0  0  0  0  0  0  0  0
   -2.2500   -1.2990    0.0000 C   0  0  0  0  0  0  0  0  0  0  0  0
   -3.0000   -2.5981    0.0000 C   0  0  0  0  0  0  0  0  0  0  0  0
   -2.2500   -3.8971    0.0000 C   0  0  0  0  0  0  0  0  0  0  0  0
   -3.0000   -5.1962    0.0000 C   0  0  0  0  0  0  0  0  0  0  0  0
   -0.7500   -3.8971    0.0000 C   0  0  0  0  0  0  0  0  0  0  0  0
   -0.0000   -2.5981    0.0000 C   0  0  0  0  0  0  0  0  0  0  0  0
    2.2500    1.2990    0.0000 C   0  0  0  0  0  0  0  0  0  0  0  0
    3.7500    1.2990    0.0000 C   0  0  0  0  0  0  0  0  0  0  0  0
  1  2  1  0
  2  3  2  0
  3  4  1  0
  4  5  2  0
  5  6  1  0
  6  7  1  0
  7  8  2  0
  8  9  1  0
  9 10  2  0
 10 11  1  0
 10 12  1  0
 12 13  2  0
  6 14  1  0
 14 15  2  0
 15 16  1  0
 16 17  2  0
 17 18  1  0
 17 19  1  0
 19 20  2  0
  5 21  1  0
 21 22  2  0
 22  2  1  0
 13  7  1  0
 20 14  1  0
M  END
>  <linear_selectivity>  (71) 
29

>  <denticity>  (71) 
1

>  <ligand_class>  (71) 
phosphine

$$$$
P(p-Tol)3_80C_benzene
     RDKit          2D

 22 24  0  0  0  0  0  0  0  0999 V2000
    6.0000   -0.0000    0.0000 C   0  0  0  0  0  0  0  0  0  0  0  0
    4.5000   -0.0000    0.0000 C   0  0  0  0  0  0  0  0  0  0  0  0
    3.7500   -1.2990    0.0000 C   0  0  0  0  0  0  0  0  0  0  0  0
    2.2500   -1.2990    0.0000 C   0  0  0  0  0  0  0  0  0  0  0  0
    1.5000   -0.0000    0.0000 C   0  0  0  0  0  0  0  0  0  0  0  0
    0.0000   -0.0000    0.0000 P   0  0  0  0  0  0  0  0  0  0  0  0
   -0.7500    1.2990    0.0000 C   0  0  0  0  0  0  0  0  0  0  0  0
    0.0000    2.5981    0.0000 C   0  0  0  0  0  0  0  0  0  0  0  0
   -0.7500    3.8971    0.0000 C   0  0  0  0  0  0  0  0  0  0  0  0
   -2.2500    3.8971    0.0000 C   0  0  0  0  0  0  0  0  0  0  0  0
   -3.0000    5.1962    0.0000 C   0  0  0  0  0  0  0  0  0  0  0  0
   -3.0000    2.5981    0.0000 C   0  0  0  0  0  0  0  0  0  0  0  0
   -2.2500    1.2990    0.0000 C   0  0  0  0  0  0  0  0  0  0  0  0
   -0.7500   -1.2990    0.0000 C   0  0  0  0  0  0  0  0  0  0  0  0
   -2.2500   -1.2990    0.0000 C   0  0  0  0  0  0  0  0  0  0  0  0
   -3.0000   -2.5981    0.0000 C   0  0  0  0  0  0  0  0  0  0  0  0
   -2.2500   -3.8971    0.0000 C   0  0  0  0  0  0  0  0  0  0  0  0
   -3.0000   -5.1962    0.0000 C   0  0  0  0  0  0  0  0  0  0  0  0
   -0.7500   -3.8971    0.0000 C   0  0  0  0  0  0  0  0  0  0  0  0
   -0.0000   -2.5981    0.0000 C   0  0  0  0  0  0  0  0  0  0  0  0
    2.2500    1.2990    0.0000 C   0  0  0  0  0  0  0  0  0  0  0  0
    3.7500    1.2990    0.0000 C   0  0  0  0  0  0  0  0  0  0  0  0
  1  2  1  0
  2  3  2  0
  3  4  1  0
  4  5  2  0
  5  6  1  0
  6  7  1  0
  7  8  2  0
  8  9  1  0
  9 10  2  0
 10 11  1  0
 10 12  1  0
 12 13  2  0
  6 14  1  0
 14 15  2  0
 15 16  1  0
 16 17  2  0
 17 18  1  0
 17 19  1  0
 19 20  2  0
  5 21  1  0
 21 22  2  0
 22  2  1  0
 13  7  1  0
 20 14  1  0
M  END
>  <linear_selectivity>  (72) 
27

>  <denticity>  (72) 
1

>  <ligand_class>  (72) 
phosphine

$$$$
P(p-Tol)3_80C_xylene
     RDKit          2D

 22 24  0  0  0  0  0  0  0  0999 V2000
    6.0000   -0.0000    0.0000 C   0  0  0  0  0  0  0  0  0  0  0  0
    4.5000   -0.0000    0.0000 C   0  0  0  0  0  0  0  0  0  0  0  0
    3.7500   -1.2990    0.0000 C   0  0  0  0  0  0  0  0  0  0  0  0
    2.2500   -1.2990    0.0000 C   0  0  0  0  0  0  0  0  0  0  0  0
    1.5000   -0.0000    0.0000 C   0  0  0  0  0  0  0  0  0  0  0  0
    0.0000   -0.0000    0.0000 P   0  0  0  0  0  0  0  0  0  0  0  0
   -0.7500    1.2990    0.0000 C   0  0  0  0  0  0  0  0  0  0  0  0
    0.0000    2.5981    0.0000 C   0  0  0  0  0  0  0  0  0  0  0  0
   -0.7500    3.8971    0.0000 C   0  0  0  0  0  0  0  0  0  0  0  0
   -2.2500    3.8971    0.0000 C   0  0  0  0  0  0  0  0  0  0  0  0
   -3.0000    5.1962    0.0000 C   0  0  0  0  0  0  0  0  0  0  0  0
   -3.0000    2.5981    0.0000 C   0  0  0  0  0  0  0  0  0  0  0  0
   -2.2500    1.2990    0.0000 C   0  0  0  0  0  0  0  0  0  0  0  0
   -0.7500   -1.2990    0.0000 C   0  0  0  0  0  0  0  0  0  0  0  0
   -2.2500   -1.2990    0.0000 C   0  0  0  0  0  0  0  0  0  0  0  0
   -3.0000   -2.5981    0.0000 C   0  0  0  0  0  0  0  0  0  0  0  0
   -2.2500   -3.8971    0.0000 C   0  0  0  0  0  0  0  0  0  0  0  0
   -3.0000   -5.1962    0.0000 C   0  0  0  0  0  0  0  0  0  0  0  0
   -0.7500   -3.8971    0.0000 C   0  0  0  0  0  0  0  0  0  0  0  0
   -0.0000   -2.5981    0.0000 C   0  0  0  0  0  0  0  0  0  0  0  0
    2.2500    1.2990    0.0000 C   0  0  0  0  0  0  0  0  0  0  0  0
    3.7500    1.2990    0.0000 C   0  0  0  0  0  0  0  0  0  0  0  0
  1  2  1  0
  2  3  2  0
  3  4  1  0
  4  5  2  0
  5  6  1  0
  6  7  1  0
  7  8  2  0
  8  9  1  0
  9 10  2  0
 10 11  1  0
 10 12  1  0
 12 13  2  0
  6 14  1  0
 14 15  2  0
 15 16  1  0
 16 17  2  0
 17 18  1  0
 17 19  1  0
 19 20  2  0
  5 21  1  0
 21 22  2  0
 22  2  1  0
 13  7  1  0
 20 14  1  0
M  END
>  <linear_selectivity>  (73) 
30

>  <denticity>  (73) 
1

>  <ligand_class>  (73) 
phosphine

$$$$
P(p-Tol)3_90C_toluene
     RDKit          2D

 22 24  0  0  0  0  0  0  0  0999 V2000
    6.0000   -0.0000    0.0000 C   0  0  0  0  0  0  0  0  0  0  0  0
    4.5000   -0.0000    0.0000 C   0  0  0  0  0  0  0  0  0  0  0  0
    3.7500   -1.2990    0.0000 C   0  0  0  0  0  0  0  0  0  0  0  0
    2.2500   -1.2990    0.0000 C   0  0  0  0  0  0  0  0  0  0  0  0
    1.5000   -0.0000    0.0000 C   0  0  0  0  0  0  0  0  0  0  0  0
    0.0000   -0.0000    0.0000 P   0  0  0  0  0  0  0  0  0  0  0  0
   -0.7500    1.2990    0.0000 C   0  0  0  0  0  0  0  0  0  0  0  0
    0.0000    2.5981    0.0000 C   0  0  0  0  0  0  0  0  0  0  0  0
   -0.7500    3.8971    0.0000 C   0  0  0  0  0  0  0  0  0  0  0  0
   -2.2500    3.8971    0.0000 C   0  0  0  0  0  0  0  0  0  0  0  0
   -3.0000    5.1962    0.0000 C   0  0  0  0  0  0  0  0  0  0  0  0
   -3.0000    2.5981    0.0000 C   0  0  0  0  0  0  0  0  0  0  0  0
   -2.2500    1.2990    0.0000 C   0  0  0  0  0  0  0  0  0  0  0  0
   -0.7500   -1.2990    0.0000 C   0  0  0  0  0  0  0  0  0  0  0  0
   -2.2500   -1.2990    0.0000 C   0  0  0  0  0  0  0  0  0  0  0  0
   -3.0000   -2.5981    0.0000 C   0  0  0  0  0  0  0  0  0  0  0  0
   -2.2500   -3.8971    0.0000 C   0  0  0  0  0  0  0  0  0  0  0  0
   -3.0000   -5.1962    0.0000 C   0  0  0  0  0  0  0  0  0  0  0  0
   -0.7500   -3.8971    0.0000 C   0  0  0  0  0  0  0  0  0  0  0  0
   -0.0000   -2.5981    0.0000 C   0  0  0  0  0  0  0  0  0  0  0  0
    2.2500    1.2990    0.0000 C   0  0  0  0  0  0  0  0  0  0  0  0
    3.7500    1.2990    0.0000 C   0  0  0  0  0  0  0  0  0  0  0  0
  1  2  1  0
  2  3  2  0
  3  4  1  0
  4  5  2  0
  5  6  1  0
  6  7  1  0
  7  8  2  0
  8  9  1  0
  9 10  2  0
 10 11  1  0
 10 12  1  0
 12 13  2  0
  6 14  1  0
 14 15  2  0
 15 16  1  0
 16 17  2  0
 17 18  1  0
 17 19  1  0
 19 20  2  0
  5 21  1  0
 21 22  2  0
 22  2  1  0
 13  7  1  0
 20 14  1  0
M  END
>  <linear_selectivity>  (74) 
27

>  <denticity>  (74) 
1

>  <ligand_class>  (74) 
phosphine

$$$$
P(p-Tol)3_90C_THF
     RDKit          2D

 22 24  0  0  0  0  0  0  0  0999 V2000
    6.0000   -0.0000    0.0000 C   0  0  0  0  0  0  0  0  0  0  0  0
    4.5000   -0.0000    0.0000 C   0  0  0  0  0  0  0  0  0  0  0  0
    3.7500   -1.2990    0.0000 C   0  0  0  0  0  0  0  0  0  0  0  0
    2.2500   -1.2990    0.0000 C   0  0  0  0  0  0  0  0  0  0  0  0
    1.5000   -0.0000    0.0000 C   0  0  0  0  0  0  0  0  0  0  0  0
    0.0000   -0.0000    0.0000 P   0  0  0  0  0  0  0  0  0  0  0  0
   -0.7500    1.2990    0.0000 C   0  0  0  0  0  0  0  0  0  0  0  0
    0.0000    2.5981    0.0000 C   0  0  0  0  0  0  0  0  0  0  0  0
   -0.7500    3.8971    0.0000 C   0  0  0  0  0  0  0  0  0  0  0  0
   -2.2500    3.8971    0.0000 C   0  0  0  0  0  0  0  0  0  0  0  0
   -3.0000    5.1962    0.0000 C   0  0  0  0  0  0  0  0  0  0  0  0
   -3.0000    2.5981    0.0000 C   0  0  0  0  0  0  0  0  0  0  0  0
   -2.2500    1.2990    0.0000 C   0  0  0  0  0  0  0  0  0  0  0  0
   -0.7500   -1.2990    0.0000 C   0  0  0  0  0  0  0  0  0  0  0  0
   -2.2500   -1.2990    0.0000 C   0  0  0  0  0  0  0  0  0  0  0  0
   -3.0000   -2.5981    0.0000 C   0  0  0  0  0  0  0  0  0  0  0  0
   -2.2500   -3.8971    0.0000 C   0  0  0  0  0  0  0  0  0  0  0  0
   -3.0000   -5.1962    0.0000 C   0  0  0  0  0  0  0  0  0  0  0  0
   -0.7500   -3.8971    0.0000 C   0  0  0  0  0  0  0  0  0  0  0  0
   -0.0000   -2.5981    0.0000 C   0  0  0  0  0  0  0  0  0  0  0  0
    2.2500    1.2990    0.0000 C   0  0  0  0  0  0  0  0  0  0  0  0
    3.7500    1.2990    0.0000 C   0  0  0  0  0  0  0  0  0  0  0  0
  1  2  1  0
  2  3  2  0
  3  4  1  0
  4  5  2  0
  5  6  1  0
  6  7  1  0
  7  8  2  0
  8  9  1  0
  9 10  2  0
 10 11  1  0
 10 12  1  0
 12 13  2  0
  6 14  1  0
 14 15  2  0
 15 16  1  0
 16 17  2  0
 17 18  1  0
 17 19  1  0
 19 20  2  0
  5 21  1  0
 21 22  2  0
 22  2  1  0
 13  7  1  0
 20 14  1  0
M  END
>  <linear_selectivity>  (75) 
24

>  <denticity>  (75) 
1

>  <ligand_class>  (75) 
phosphine

$$$$
P(p-Tol)3_90C_dioxane
     RDKit          2D

 22 24  0  0  0  0  0  0  0  0999 V2000
    6.0000   -0.0000    0.0000 C   0  0  0  0  0  0  0  0  0  0  0  0
    4.5000   -0.0000    0.0000 C   0  0  0  0  0  0  0  0  0  0  0  0
    3.7500   -1.2990    0.0000 C   0  0  0  0  0  0  0  0  0  0  0  0
    2.2500   -1.2990    0.0000 C   0  0  0  0  0  0  0  0  0  0  0  0
    1.5000   -0.0000    0.0000 C   0  0  0  0  0  0  0  0  0  0  0  0
    0.0000   -0.0000    0.0000 P   0  0  0  0  0  0  0  0  0  0  0  0
   -0.7500    1.2990    0.0000 C   0  0  0  0  0  0  0  0  0  0  0  0
    0.0000    2.5981    0.0000 C   0  0  0  0  0  0  0  0  0  0  0  0
   -0.7500    3.8971    0.0000 C   0  0  0  0  0  0  0  0  0  0  0  0
   -2.2500    3.8971    0.0000 C   0  0  0  0  0  0  0  0  0  0  0  0
   -3.0000    5.1962    0.0000 C   0  0  0  0  0  0  0  0  0  0  0  0
   -3.0000    2.5981    0.0000 C   0  0  0  0  0  0  0  0  0  0  0  0
   -2.2500    1.2990    0.0000 C   0  0  0  0  0  0  0  0  0  0  0  0
   -0.7500   -1.2990    0.0000 C   0  0  0  0  0  0  0  0  0  0  0  0
   -2.2500   -1.2990    0.0000 C   0  0  0  0  0  0  0  0  0  0  0  0
   -3.0000   -2.5981    0.0000 C   0  0  0  0  0  0  0  0  0  0  0  0
   -2.2500   -3.8971    0.0000 C   0  0  0  0  0  0  0  0  0  0  0  0
   -3.0000   -5.1962    0.0000 C   0  0  0  0  0  0  0  0  0  0  0  0
   -0.7500   -3.8971    0.0000 C   0  0  0  0  0  0  0  0  0  0  0  0
   -0.0000   -2.5981    0.0000 C   0  0  0  0  0  0  0  0  0  0  0  0
    2.2500    1.2990    0.0000 C   0  0  0  0  0  0  0  0  0  0  0  0
    3.7500    1.2990    0.0000 C   0  0  0  0  0  0  0  0  0  0  0  0
  1  2  1  0
  2  3  2  0
  3  4  1  0
  4  5  2  0
  5  6  1  0
  6  7  1  0
  7  8  2  0
  8  9  1  0
  9 10  2  0
 10 11  1  0
 10 12  1  0
 12 13  2  0
  6 14  1  0
 14 15  2  0
 15 16  1  0
 16 17  2  0
 17 18  1  0
 17 19  1  0
 19 20  2  0
  5 21  1  0
 21 22  2  0
 22  2  1  0
 13  7  1  0
 20 14  1  0
M  END
>  <linear_selectivity>  (76) 
28

>  <denticity>  (76) 
1

>  <ligand_class>  (76) 
phosphine

$$$$
P(p-Tol)3_90C_hexane
     RDKit          2D

 22 24  0  0  0  0  0  0  0  0999 V2000
    6.0000   -0.0000    0.0000 C   0  0  0  0  0  0  0  0  0  0  0  0
    4.5000   -0.0000    0.0000 C   0  0  0  0  0  0  0  0  0  0  0  0
    3.7500   -1.2990    0.0000 C   0  0  0  0  0  0  0  0  0  0  0  0
    2.2500   -1.2990    0.0000 C   0  0  0  0  0  0  0  0  0  0  0  0
    1.5000   -0.0000    0.0000 C   0  0  0  0  0  0  0  0  0  0  0  0
    0.0000   -0.0000    0.0000 P   0  0  0  0  0  0  0  0  0  0  0  0
   -0.7500    1.2990    0.0000 C   0  0  0  0  0  0  0  0  0  0  0  0
    0.0000    2.5981    0.0000 C   0  0  0  0  0  0  0  0  0  0  0  0
   -0.7500    3.8971    0.0000 C   0  0  0  0  0  0  0  0  0  0  0  0
   -2.2500    3.8971    0.0000 C   0  0  0  0  0  0  0  0  0  0  0  0
   -3.0000    5.1962    0.0000 C   0  0  0  0  0  0  0  0  0  0  0  0
   -3.0000    2.5981    0.0000 C   0  0  0  0  0  0  0  0  0  0  0  0
   -2.2500    1.2990    0.0000 C   0  0  0  0  0  0  0  0  0  0  0  0
   -0.7500   -1.2990    0.0000 C   0  0  0  0  0  0  0  0  0  0  0  0
   -2.2500   -1.2990    0.0000 C   0  0  0  0  0  0  0  0  0  0  0  0
   -3.0000   -2.5981    0.0000 C   0  0  0  0  0  0  0  0  0  0  0  0
   -2.2500   -3.8971    0.0000 C   0  0  0  0  0  0  0  0  0  0  0  0
   -3.0000   -5.1962    0.0000 C   0  0  0  0  0  0  0  0  0  0  0  0
   -0.7500   -3.8971    0.0000 C   0  0  0  0  0  0  0  0  0  0  0  0
   -0.0000   -2.5981    0.0000 C   0  0  0  0  0  0  0  0  0  0  0  0
    2.2500    1.2990    0.0000 C   0  0  0  0  0  0  0  0  0  0  0  0
    3.7500    1.2990    0.0000 C   0  0  0  0  0  0  0  0  0  0  0  0
  1  2  1  0
  2  3  2  0
  3  4  1  0
  4  5  2  0
  5  6  1  0
  6  7  1  0
  7  8  2  0
  8  9  1  0
  9 10  2  0
 10 11  1  0
 10 12  1  0
 12 13  2  0
  6 14  1  0
 14 15  2  0
 15 16  1  0
 16 17  2  0
 17 18  1  0
 17 19  1  0
 19 20  2  0
  5 21  1  0
 21 22  2  0
 22  2  1  0
 13  7  1  0
 20 14  1  0
M  END
>  <linear_selectivity>  (77) 
31

>  <denticity>  (77) 
1

>  <ligand_class>  (77) 
phosphine

$$$$
P(p-Tol)3_90C_benzene
     RDKit          2D

 22 24  0  0  0  0  0  0  0  0999 V2000
    6.0000   -0.0000    0.0000 C   0  0  0  0  0  0  0  0  0  0  0  0
    4.5000   -0.0000    0.0000 C   0  0  0  0  0  0  0  0  0  0  0  0
    3.7500   -1.2990    0.0000 C   0  0  0  0  0  0  0  0  0  0  0  0
    2.2500   -1.2990    0.0000 C   0  0  0  0  0  0  0  0  0  0  0  0
    1.5000   -0.0000    0.0000 C   0  0  0  0  0  0  0  0  0  0  0  0
    0.0000   -0.0000    0.0000 P   0  0  0  0  0  0  0  0  0  0  0  0
   -0.7500    1.2990    0.0000 C   0  0  0  0  0  0  0  0  0  0  0  0
    0.0000    2.5981    0.0000 C   0  0  0  0  0  0  0  0  0  0  0  0
   -0.7500    3.8971    0.0000 C   0  0  0  0  0  0  0  0  0  0  0  0
   -2.2500    3.8971    0.0000 C   0  0  0  0  0  0  0  0  0  0  0  0
   -3.0000    5.1962    0.0000 C   0  0  0  0  0  0  0  0  0  0  0  0
   -3.0000    2.5981    0.0000 C   0  0  0  0  0  0  0  0  0  0  0  0
   -2.2500    1.2990    0.0000 C   0  0  0  0  0  0  0  0  0  0  0  0
   -0.7500   -1.2990    0.0000 C   0  0  0  0  0  0  0  0  0  0  0  0
   -2.2500   -1.2990    0.0000 C   0  0  0  0  0  0  0  0  0  0  0  0
   -3.0000   -2.5981    0.0000 C   0  0  0  0  0  0  0  0  0  0  0  0
   -2.2500   -3.8971    0.0000 C   0  0  0  0  0  0  0  0  0  0  0  0
   -3.0000   -5.1962    0.0000 C   0  0  0  0  0  0  0  0  0  0  0  0
   -0.7500   -3.8971    0.0000 C   0  0  0  0  0  0  0  0  0  0  0  0
   -0.0000   -2.5981    0.0000 C   0  0  0  0  0  0  0  0  0  0  0  0
    2.2500    1.2990    0.0000 C   0  0  0  0  0  0  0  0  0  0  0  0
    3.7500    1.2990    0.0000 C   0  0  0  0  0  0  0  0  0  0  0  0
  1  2  1  0
  2  3  2  0
  3  4  1  0
  4  5  2  0
  5  6  1  0
  6  7  1  0
  7  8  2  0
  8  9  1  0
  9 10  2  0
 10 11  1  0
 10 12  1  0
 12 13  2  0
  6 14  1  0
 14 15  2  0
 15 16  1  0
 16 17  2  0
 17 18  1  0
 17 19  1  0
 19 20  2  0
  5 21  1  0
 21 22  2  0
 22  2  1  0
 13  7  1  0
 20 14  1  0
M  END
>  <linear_selectivity>  (78) 
30

>  <denticity>  (78) 
1

>  <ligand_class>  (78) 
phosphine

$$$$
P(p-Tol)3_90C_xylene
     RDKit          2D

 22 24  0  0  0  0  0  0  0  0999 V2000
    6.0000   -0.0000    0.0000 C   0  0  0  0  0  0  0  0  0  0  0  0
    4.5000   -0.0000    0.0000 C   0  0  0  0  0  0  0  0  0  0  0  0
    3.7500   -1.2990    0.0000 C   0  0  0  0  0  0  0  0  0  0  0  0
    2.2500   -1.2990    0.0000 C   0  0  0  0  0  0  0  0  0  0  0  0
    1.5000   -0.0000    0.0000 C   0  0  0  0  0  0  0  0  0  0  0  0
    0.0000   -0.0000    0.0000 P   0  0  0  0  0  0  0  0  0  0  0  0
   -0.7500    1.2990    0.0000 C   0  0  0  0  0  0  0  0  0  0  0  0
    0.0000    2.5981    0.0000 C   0  0  0  0  0  0  0  0  0  0  0  0
   -0.7500    3.8971    0.0000 C   0  0  0  0  0  0  0  0  0  0  0  0
   -2.2500    3.8971    0.0000 C   0  0  0  0  0  0  0  0  0  0  0  0
   -3.0000    5.1962    0.0000 C   0  0  0  0  0  0  0  0  0  0  0  0
   -3.0000    2.5981    0.0000 C   0  0  0  0  0  0  0  0  0  0  0  0
   -2.2500    1.2990    0.0000 C   0  0  0  0  0  0  0  0  0  0  0  0
   -0.7500   -1.2990    0.0000 C   0  0  0  0  0  0  0  0  0  0  0  0
   -2.2500   -1.2990    0.0000 C   0  0  0  0  0  0  0  0  0  0  0  0
   -3.0000   -2.5981    0.0000 C   0  0  0  0  0  0  0  0  0  0  0  0
   -2.2500   -3.8971    0.0000 C   0  0  0  0  0  0  0  0  0  0  0  0
   -3.0000   -5.1962    0.0000 C   0  0  0  0  0  0  0  0  0  0  0  0
   -0.7500   -3.8971    0.0000 C   0  0  0  0  0  0  0  0  0  0  0  0
   -0.0000   -2.5981    0.0000 C   0  0  0  0  0  0  0  0  0  0  0  0
    2.2500    1.2990    0.0000 C   0  0  0  0  0  0  0  0  0  0  0  0
    3.7500    1.2990    0.0000 C   0  0  0  0  0  0  0  0  0  0  0  0
  1  2  1  0
  2  3  2  0
  3  4  1  0
  4  5  2  0
  5  6  1  0
  6  7  1  0
  7  8  2  0
  8  9  1  0
  9 10  2  0
 10 11  1  0
 10 12  1  0
 12 13  2  0
  6 14  1  0
 14 15  2  0
 15 16  1  0
 16 17  2  0
 17 18  1  0
 17 19  1  0
 19 20  2  0
  5 21  1  0
 21 22  2  0
 22  2  1  0
 13  7  1  0
 20 14  1  0
M  END
>  <linear_selectivity>  (79) 
28

>  <denticity>  (79) 
1

>  <ligand_class>  (79) 
phosphine

$$$$
P(p-Tol)3_100C_toluene
     RDKit          2D

 22 24  0  0  0  0  0  0  0  0999 V2000
    6.0000   -0.0000    0.0000 C   0  0  0  0  0  0  0  0  0  0  0  0
    4.5000   -0.0000    0.0000 C   0  0  0  0  0  0  0  0  0  0  0  0
    3.7500   -1.2990    0.0000 C   0  0  0  0  0  0  0  0  0  0  0  0
    2.2500   -1.2990    0.0000 C   0  0  0  0  0  0  0  0  0  0  0  0
    1.5000   -0.0000    0.0000 C   0  0  0  0  0  0  0  0  0  0  0  0
    0.0000   -0.0000    0.0000 P   0  0  0  0  0  0  0  0  0  0  0  0
   -0.7500    1.2990    0.0000 C   0  0  0  0  0  0  0  0  0  0  0  0
    0.0000    2.5981    0.0000 C   0  0  0  0  0  0  0  0  0  0  0  0
   -0.7500    3.8971    0.0000 C   0  0  0  0  0  0  0  0  0  0  0  0
   -2.2500    3.8971    0.0000 C   0  0  0  0  0  0  0  0  0  0  0  0
   -3.0000    5.1962    0.0000 C   0  0  0  0  0  0  0  0  0  0  0  0
   -3.0000    2.5981    0.0000 C   0  0  0  0  0  0  0  0  0  0  0  0
   -2.2500    1.2990    0.0000 C   0  0  0  0  0  0  0  0  0  0  0  0
   -0.7500   -1.2990    0.0000 C   0  0  0  0  0  0  0  0  0  0  0  0
   -2.2500   -1.2990    0.0000 C   0  0  0  0  0  0  0  0  0  0  0  0
   -3.0000   -2.5981    0.0000 C   0  0  0  0  0  0  0  0  0  0  0  0
   -2.2500   -3.8971    0.0000 C   0  0  0  0  0  0  0  0  0  0  0  0
   -3.0000   -5.1962    0.0000 C   0  0  0  0  0  0  0  0  0  0  0  0
   -0.7500   -3.8971    0.0000 C   0  0  0  0  0  0  0  0  0  0  0  0
   -0.0000   -2.5981    0.0000 C   0  0  0  0  0  0  0  0  0  0  0  0
    2.2500    1.2990    0.0000 C   0  0  0  0  0  0  0  0  0  0  0  0
    3.7500    1.2990    0.0000 C   0  0  0  0  0  0  0  0  0  0  0  0
  1  2  1  0
  2  3  2  0
  3  4  1  0
  4  5  2  0
  5  6  1  0
  6  7  1  0
  7  8  2  0
  8  9  1  0
  9 10  2  0
 10 11  1  0
 10 12  1  0
 12 13  2  0
  6 14  1  0
 14 15  2  0
 15 16  1  0
 16 17  2  0
 17 18  1  0
 17 19  1  0
 19 20  2  0
  5 21  1  0
 21 22  2  0
 22  2  1  0
 13  7  1  0
 20 14  1  0
M  END
>  <linear_selectivity>  (80) 
23

>  <denticity>  (80) 
1

>  <ligand_class>  (80) 
phosphine

$$$$
P(p-Tol)3_100C_dioxane
     RDKit          2D

 22 24  0  0  0  0  0  0  0  0999 V2000
    6.0000   -0.0000    0.0000 C   0  0  0  0  0  0  0  0  0  0  0  0
    4.5000   -0.0000    0.0000 C   0  0  0  0  0  0  0  0  0  0  0  0
    3.7500   -1.2990    0.0000 C   0  0  0  0  0  0  0  0  0  0  0  0
    2.2500   -1.2990    0.0000 C   0  0  0  0  0  0  0  0  0  0  0  0
    1.5000   -0.0000    0.0000 C   0  0  0  0  0  0  0  0  0  0  0  0
    0.0000   -0.0000    0.0000 P   0  0  0  0  0  0  0  0  0  0  0  0
   -0.7500    1.2990    0.0000 C   0  0  0  0  0  0  0  0  0  0  0  0
    0.0000    2.5981    0.0000 C   0  0  0  0  0  0  0  0  0  0  0  0
   -0.7500    3.8971    0.0000 C   0  0  0  0  0  0  0  0  0  0  0  0
   -2.2500    3.8971    0.0000 C   0  0  0  0  0  0  0  0  0  0  0  0
   -3.0000    5.1962    0.0000 C   0  0  0  0  0  0  0  0  0  0  0  0
   -3.0000    2.5981    0.0000 C   0  0  0  0  0  0  0  0  0  0  0  0
   -2.2500    1.2990    0.0000 C   0  0  0  0  0  0  0  0  0  0  0  0
   -0.7500   -1.2990    0.0000 C   0  0  0  0  0  0  0  0  0  0  0  0
   -2.2500   -1.2990    0.0000 C   0  0  0  0  0  0  0  0  0  0  0  0
   -3.0000   -2.5981    0.0000 C   0  0  0  0  0  0  0  0  0  0  0  0
   -2.2500   -3.8971    0.0000 C   0  0  0  0  0  0  0  0  0  0  0  0
   -3.0000   -5.1962    0.0000 C   0  0  0  0  0  0  0  0  0  0  0  0
   -0.7500   -3.8971    0.0000 C   0  0  0  0  0  0  0  0  0  0  0  0
   -0.0000   -2.5981    0.0000 C   0  0  0  0  0  0  0  0  0  0  0  0
    2.2500    1.2990    0.0000 C   0  0  0  0  0  0  0  0  0  0  0  0
    3.7500    1.2990    0.0000 C   0  0  0  0  0  0  0  0  0  0  0  0
  1  2  1  0
  2  3  2  0
  3  4  1  0
  4  5  2  0
  5  6  1  0
  6  7  1  0
  7  8  2  0
  8  9  1  0
  9 10  2  0
 10 11  1  0
 10 12  1  0
 12 13  2  0
  6 14  1  0
 14 15  2  0
 15 16  1  0
 16 17  2  0
 17 18  1  0
 17 19  1  0
 19 20  2  0
  5 21  1  0
 21 22  2  0
 22  2  1  0
 13  7  1  0
 20 14  1  0
M  END
>  <linear_selectivity>  (81) 
27

>  <denticity>  (81) 
1

>  <ligand_class>  (81) 
phosphine

$$$$
P(p-Tol)3_100C_hexane
     RDKit          2D

 22 24  0  0  0  0  0  0  0  0999 V2000
    6.0000   -0.0000    0.0000 C   0  0  0  0  0  0  0  0  0  0  0  0
    4.5000   -0.0000    0.0000 C   0  0  0  0  0  0  0  0  0  0  0  0
    3.7500   -1.2990    0.0000 C   0  0  0  0  0  0  0  0  0  0  0  0
    2.2500   -1.2990    0.0000 C   0  0  0  0  0  0  0  0  0  0  0  0
    1.5000   -0.0000    0.0000 C   0  0  0  0  0  0  0  0  0  0  0  0
    0.0000   -0.0000    0.0000 P   0  0  0  0  0  0  0  0  0  0  0  0
   -0.7500    1.2990    0.0000 C   0  0  0  0  0  0  0  0  0  0  0  0
    0.0000    2.5981    0.0000 C   0  0  0  0  0  0  0  0  0  0  0  0
   -0.7500    3.8971    0.0000 C   0  0  0  0  0  0  0  0  0  0  0  0
   -2.2500    3.8971    0.0000 C   0  0  0  0  0  0  0  0  0  0  0  0
   -3.0000    5.1962    0.0000 C   0  0  0  0  0  0  0  0  0  0  0  0
   -3.0000    2.5981    0.0000 C   0  0  0  0  0  0  0  0  0  0  0  0
   -2.2500    1.2990    0.0000 C   0  0  0  0  0  0  0  0  0  0  0  0
   -0.7500   -1.2990    0.0000 C   0  0  0  0  0  0  0  0  0  0  0  0
   -2.2500   -1.2990    0.0000 C   0  0  0  0  0  0  0  0  0  0  0  0
   -3.0000   -2.5981    0.0000 C   0  0  0  0  0  0  0  0  0  0  0  0
   -2.2500   -3.8971    0.0000 C   0  0  0  0  0  0  0  0  0  0  0  0
   -3.0000   -5.1962    0.0000 C   0  0  0  0  0  0  0  0  0  0  0  0
   -0.7500   -3.8971    0.0000 C   0  0  0  0  0  0  0  0  0  0  0  0
   -0.0000   -2.5981    0.0000 C   0  0  0  0  0  0  0  0  0  0  0  0
    2.2500    1.2990    0.0000 C   0  0  0  0  0  0  0  0  0  0  0  0
    3.7500    1.2990    0.0000 C   0  0  0  0  0  0  0  0  0  0  0  0
  1  2  1  0
  2  3  2  0
  3  4  1  0
  4  5  2  0
  5  6  1  0
  6  7  1  0
  7  8  2  0
  8  9  1  0
  9 10  2  0
 10 11  1  0
 10 12  1  0
 12 13  2  0
  6 14  1  0
 14 15  2  0
 15 16  1  0
 16 17  2  0
 17 18  1  0
 17 19  1  0
 19 20  2  0
  5 21  1  0
 21 22  2  0
 22  2  1  0
 13  7  1  0
 20 14  1  0
M  END
>  <linear_selectivity>  (82) 
27

>  <denticity>  (82) 
1

>  <ligand_class>  (82) 
phosphine

$$$$
P(p-Tol)3_100C_benzene
     RDKit          2D

 22 24  0  0  0  0  0  0  0  0999 V2000
    6.0000   -0.0000    0.0000 C   0  0  0  0  0  0  0  0  0  0  0  0
    4.5000   -0.0000    0.0000 C   0  0  0  0  0  0  0  0  0  0  0  0
    3.7500   -1.2990    0.0000 C   0  0  0  0  0  0  0  0  0  0  0  0
    2.2500   -1.2990    0.0000 C   0  0  0  0  0  0  0  0  0  0  0  0
    1.5000   -0.0000    0.0000 C   0  0  0  0  0  0  0  0  0  0  0  0
    0.0000   -0.0000    0.0000 P   0  0  0  0  0  0  0  0  0  0  0  0
   -0.7500    1.2990    0.0000 C   0  0  0  0  0  0  0  0  0  0  0  0
    0.0000    2.5981    0.0000 C   0  0  0  0  0  0  0  0  0  0  0  0
   -0.7500    3.8971    0.0000 C   0  0  0  0  0  0  0  0  0  0  0  0
   -2.2500    3.8971    0.0000 C   0  0  0  0  0  0  0  0  0  0  0  0
   -3.0000    5.1962    0.0000 C   0  0  0  0  0  0  0  0  0  0  0  0
   -3.0000    2.5981    0.0000 C   0  0  0  0  0  0  0  0  0  0  0  0
   -2.2500    1.2990    0.0000 C   0  0  0  0  0  0  0  0  0  0  0  0
   -0.7500   -1.2990    0.0000 C   0  0  0  0  0  0  0  0  0  0  0  0
   -2.2500   -1.2990    0.0000 C   0  0  0  0  0  0  0  0  0  0  0  0
   -3.0000   -2.5981    0.0000 C   0  0  0  0  0  0  0  0  0  0  0  0
   -2.2500   -3.8971    0.0000 C   0  0  0  0  0  0  0  0  0  0  0  0
   -3.0000   -5.1962    0.0000 C   0  0  0  0  0  0  0  0  0  0  0  0
   -0.7500   -3.8971    0.0000 C   0  0  0  0  0  0  0  0  0  0  0  0
   -0.0000   -2.5981    0.0000 C   0  0  0  0  0  0  0  0  0  0  0  0
    2.2500    1.2990    0.0000 C   0  0  0  0  0  0  0  0  0  0  0  0
    3.7500    1.2990    0.0000 C   0  0  0  0  0  0  0  0  0  0  0  0
  1  2  1  0
  2  3  2  0
  3  4  1  0
  4  5  2  0
  5  6  1  0
  6  7  1  0
  7  8  2  0
  8  9  1  0
  9 10  2  0
 10 11  1  0
 10 12  1  0
 12 13  2  0
  6 14  1  0
 14 15  2  0
 15 16  1  0
 16 17  2  0
 17 18  1  0
 17 19  1  0
 19 20  2  0
  5 21  1  0
 21 22  2  0
 22  2  1  0
 13  7  1  0
 20 14  1  0
M  END
>  <linear_selectivity>  (83) 
30

>  <denticity>  (83) 
1

>  <ligand_class>  (83) 
phosphine

$$$$
P(p-Tol)3_110C_toluene
     RDKit          2D

 22 24  0  0  0  0  0  0  0  0999 V2000
    6.0000   -0.0000    0.0000 C   0  0  0  0  0  0  0  0  0  0  0  0
    4.5000   -0.0000    0.0000 C   0  0  0  0  0  0  0  0  0  0  0  0
    3.7500   -1.2990    0.0000 C   0  0  0  0  0  0  0  0  0  0  0  0
    2.2500   -1.2990    0.0000 C   0  0  0  0  0  0  0  0  0  0  0  0
    1.5000   -0.0000    0.0000 C   0  0  0  0  0  0  0  0  0  0  0  0
    0.0000   -0.0000    0.0000 P   0  0  0  0  0  0  0  0  0  0  0  0
   -0.7500    1.2990    0.0000 C   0  0  0  0  0  0  0  0  0  0  0  0
    0.0000    2.5981    0.0000 C   0  0  0  0  0  0  0  0  0  0  0  0
   -0.7500    3.8971    0.0000 C   0  0  0  0  0  0  0  0  0  0  0  0
   -2.2500    3.8971    0.0000 C   0  0  0  0  0  0  0  0  0  0  0  0
   -3.0000    5.1962    0.0000 C   0  0  0  0  0  0  0  0  0  0  0  0
   -3.0000    2.5981    0.0000 C   0  0  0  0  0  0  0  0  0  0  0  0
   -2.2500    1.2990    0.0000 C   0  0  0  0  0  0  0  0  0  0  0  0
   -0.7500   -1.2990    0.0000 C   0  0  0  0  0  0  0  0  0  0  0  0
   -2.2500   -1.2990    0.0000 C   0  0  0  0  0  0  0  0  0  0  0  0
   -3.0000   -2.5981    0.0000 C   0  0  0  0  0  0  0  0  0  0  0  0
   -2.2500   -3.8971    0.0000 C   0  0  0  0  0  0  0  0  0  0  0  0
   -3.0000   -5.1962    0.0000 C   0  0  0  0  0  0  0  0  0  0  0  0
   -0.7500   -3.8971    0.0000 C   0  0  0  0  0  0  0  0  0  0  0  0
   -0.0000   -2.5981    0.0000 C   0  0  0  0  0  0  0  0  0  0  0  0
    2.2500    1.2990    0.0000 C   0  0  0  0  0  0  0  0  0  0  0  0
    3.7500    1.2990    0.0000 C   0  0  0  0  0  0  0  0  0  0  0  0
  1  2  1  0
  2  3  2  0
  3  4  1  0
  4  5  2  0
  5  6  1  0
  6  7  1  0
  7  8  2  0
  8  9  1  0
  9 10  2  0
 10 11  1  0
 10 12  1  0
 12 13  2  0
  6 14  1  0
 14 15  2  0
 15 16  1  0
 16 17  2  0
 17 18  1  0
 17 19  1  0
 19 20  2  0
  5 21  1  0
 21 22  2  0
 22  2  1  0
 13  7  1  0
 20 14  1  0
M  END
>  <linear_selectivity>  (84) 
28

>  <denticity>  (84) 
1

>  <ligand_class>  (84) 
phosphine

$$$$
P(p-Tol)3_110C_dioxane
     RDKit          2D

 22 24  0  0  0  0  0  0  0  0999 V2000
    6.0000   -0.0000    0.0000 C   0  0  0  0  0  0  0  0  0  0  0  0
    4.5000   -0.0000    0.0000 C   0  0  0  0  0  0  0  0  0  0  0  0
    3.7500   -1.2990    0.0000 C   0  0  0  0  0  0  0  0  0  0  0  0
    2.2500   -1.2990    0.0000 C   0  0  0  0  0  0  0  0  0  0  0  0
    1.5000   -0.0000    0.0000 C   0  0  0  0  0  0  0  0  0  0  0  0
    0.0000   -0.0000    0.0000 P   0  0  0  0  0  0  0  0  0  0  0  0
   -0.7500    1.2990    0.0000 C   0  0  0  0  0  0  0  0  0  0  0  0
    0.0000    2.5981    0.0000 C   0  0  0  0  0  0  0  0  0  0  0  0
   -0.7500    3.8971    0.0000 C   0  0  0  0  0  0  0  0  0  0  0  0
   -2.2500    3.8971    0.0000 C   0  0  0  0  0  0  0  0  0  0  0  0
   -3.0000    5.1962    0.0000 C   0  0  0  0  0  0  0  0  0  0  0  0
   -3.0000    2.5981    0.0000 C   0  0  0  0  0  0  0  0  0  0  0  0
   -2.2500    1.2990    0.0000 C   0  0  0  0  0  0  0  0  0  0  0  0
   -0.7500   -1.2990    0.0000 C   0  0  0  0  0  0  0  0  0  0  0  0
   -2.2500   -1.2990    0.0000 C   0  0  0  0  0  0  0  0  0  0  0  0
   -3.0000   -2.5981    0.0000 C   0  0  0  0  0  0  0  0  0  0  0  0
   -2.2500   -3.8971    0.0000 C   0  0  0  0  0  0  0  0  0  0  0  0
   -3.0000   -5.1962    0.0000 C   0  0  0  0  0  0  0  0  0  0  0  0
   -0.7500   -3.8971    0.0000 C   0  0  0  0  0  0  0  0  0  0  0  0
   -0.0000   -2.5981    0.0000 C   0  0  0  0  0  0  0  0  0  0  0  0
    2.2500    1.2990    0.0000 C   0  0  0  0  0  0  0  0  0  0  0  0
    3.7500    1.2990    0.0000 C   0  0  0  0  0  0  0  0  0  0  0  0
  1  2  1  0
  2  3  2  0
  3  4  1  0
  4  5  2  0
  5  6  1  0
  6  7  1  0
  7  8  2  0
  8  9  1  0
  9 10  2  0
 10 11  1  0
 10 12  1  0
 12 13  2  0
  6 14  1  0
 14 15  2  0
 15 16  1  0
 16 17  2  0
 17 18  1  0
 17 19  1  0
 19 20  2  0
  5 21  1  0
 21 22  2  0
 22  2  1  0
 13  7  1  0
 20 14  1  0
M  END
>  <linear_selectivity>  (85) 
24

>  <denticity>  (85) 
1

>  <ligand_class>  (85) 
phosphine

$$$$
P(p-Tol)3_110C_hexane
     RDKit          2D

 22 24  0  0  0  0  0  0  0  0999 V2000
    6.0000   -0.0000    0.0000 C   0  0  0  0  0  0  0  0  0  0  0  0
    4.5000   -0.0000    0.0000 C   0  0  0  0  0  0  0  0  0  0  0  0
    3.7500   -1.2990    0.0000 C   0  0  0  0  0  0  0  0  0  0  0  0
    2.2500   -1.2990    0.0000 C   0  0  0  0  0  0  0  0  0  0  0  0
    1.5000   -0.0000    0.0000 C   0  0  0  0  0  0  0  0  0  0  0  0
    0.0000   -0.0000    0.0000 P   0  0  0  0  0  0  0  0  0  0  0  0
   -0.7500    1.2990    0.0000 C   0  0  0  0  0  0  0  0  0  0  0  0
    0.0000    2.5981    0.0000 C   0  0  0  0  0  0  0  0  0  0  0  0
   -0.7500    3.8971    0.0000 C   0  0  0  0  0  0  0  0  0  0  0  0
   -2.2500    3.8971    0.0000 C   0  0  0  0  0  0  0  0  0  0  0  0
   -3.0000    5.1962    0.0000 C   0  0  0  0  0  0  0  0  0  0  0  0
   -3.0000    2.5981    0.0000 C   0  0  0  0  0  0  0  0  0  0  0  0
   -2.2500    1.2990    0.0000 C   0  0  0  0  0  0  0  0  0  0  0  0
   -0.7500   -1.2990    0.0000 C   0  0  0  0  0  0  0  0  0  0  0  0
   -2.2500   -1.2990    0.0000 C   0  0  0  0  0  0  0  0  0  0  0  0
   -3.0000   -2.5981    0.0000 C   0  0  0  0  0  0  0  0  0  0  0  0
   -2.2500   -3.8971    0.0000 C   0  0  0  0  0  0  0  0  0  0  0  0
   -3.0000   -5.1962    0.0000 C   0  0  0  0  0  0  0  0  0  0  0  0
   -0.7500   -3.8971    0.0000 C   0  0  0  0  0  0  0  0  0  0  0  0
   -0.0000   -2.5981    0.0000 C   0  0  0  0  0  0  0  0  0  0  0  0
    2.2500    1.2990    0.0000 C   0  0  0  0  0  0  0  0  0  0  0  0
    3.7500    1.2990    0.0000 C   0  0  0  0  0  0  0  0  0  0  0  0
  1  2  1  0
  2  3  2  0
  3  4  1  0
  4  5  2  0
  5  6  1  0
  6  7  1  0
  7  8  2  0
  8  9  1  0
  9 10  2  0
 10 11  1  0
 10 12  1  0
 12 13  2  0
  6 14  1  0
 14 15  2  0
 15 16  1  0
 16 17  2  0
 17 18  1  0
 17 19  1  0
 19 20  2  0
  5 21  1  0
 21 22  2  0
 22  2  1  0
 13  7  1  0
 20 14  1  0
M  END
>  <linear_selectivity>  (86) 
27

>  <denticity>  (86) 
1

>  <ligand_class>  (86) 
phosphine

$$$$
P(p-Tol)3_110C_benzene
     RDKit          2D

 22 24  0  0  0  0  0  0  0  0999 V2000
    6.0000   -0.0000    0.0000 C   0  0  0  0  0  0  0  0  0  0  0  0
    4.5000   -0.0000    0.0000 C   0  0  0  0  0  0  0  0  0  0  0  0
    3.7500   -1.2990    0.0000 C   0  0  0  0  0  0  0  0  0  0  0  0
    2.2500   -1.2990    0.0000 C   0  0  0  0  0  0  0  0  0  0  0  0
    1.5000   -0.0000    0.0000 C   0  0  0  0  0  0  0  0  0  0  0  0
    0.0000   -0.0000    0.0000 P   0  0  0  0  0  0  0  0  0  0  0  0
   -0.7500    1.2990    0.0000 C   0  0  0  0  0  0  0  0  0  0  0  0
    0.0000    2.5981    0.0000 C   0  0  0  0  0  0  0  0  0  0  0  0
   -0.7500    3.8971    0.0000 C   0  0  0  0  0  0  0  0  0  0  0  0
   -2.2500    3.8971    0.0000 C   0  0  0  0  0  0  0  0  0  0  0  0
   -3.0000    5.1962    0.0000 C   0  0  0  0  0  0  0  0  0  0  0  0
   -3.0000    2.5981    0.0000 C   0  0  0  0  0  0  0  0  0  0  0  0
   -2.2500    1.2990    0.0000 C   0  0  0  0  0  0  0  0  0  0  0  0
   -0.7500   -1.2990    0.0000 C   0  0  0  0  0  0  0  0  0  0  0  0
   -2.2500   -1.2990    0.0000 C   0  0  0  0  0  0  0  0  0  0  0  0
   -3.0000   -2.5981    0.0000 C   0  0  0  0  0  0  0  0  0  0  0  0
   -2.2500   -3.8971    0.0000 C   0  0  0  0  0  0  0  0  0  0  0  0
   -3.0000   -5.1962    0.0000 C   0  0  0  0  0  0  0  0  0  0  0  0
   -0.7500   -3.8971    0.0000 C   0  0  0  0  0  0  0  0  0  0  0  0
   -0.0000   -2.5981    0.0000 C   0  0  0  0  0  0  0  0  0  0  0  0
    2.2500    1.2990    0.0000 C   0  0  0  0  0  0  0  0  0  0  0  0
    3.7500    1.2990    0.0000 C   0  0  0  0  0  0  0  0  0  0  0  0
  1  2  1  0
  2  3  2  0
  3  4  1  0
  4  5  2  0
  5  6  1  0
  6  7  1  0
  7  8  2  0
  8  9  1  0
  9 10  2  0
 10 11  1  0
 10 12  1  0
 12 13  2  0
  6 14  1  0
 14 15  2  0
 15 16  1  0
 16 17  2  0
 17 18  1  0
 17 19  1  0
 19 20  2  0
  5 21  1  0
 21 22  2  0
 22  2  1  0
 13  7  1  0
 20 14  1  0
M  END
>  <linear_selectivity>  (87) 
28

>  <denticity>  (87) 
1

>  <ligand_class>  (87) 
phosphine

$$$$
P(p-Tol)3_120C_toluene
     RDKit          2D

 22 24  0  0  0  0  0  0  0  0999 V2000
    6.0000   -0.0000    0.0000 C   0  0  0  0  0  0  0  0  0  0  0  0
    4.5000   -0.0000    0.0000 C   0  0  0  0  0  0  0  0  0  0  0  0
    3.7500   -1.2990    0.0000 C   0  0  0  0  0  0  0  0  0  0  0  0
    2.2500   -1.2990    0.0000 C   0  0  0  0  0  0  0  0  0  0  0  0
    1.5000   -0.0000    0.0000 C   0  0  0  0  0  0  0  0  0  0  0  0
    0.0000   -0.0000    0.0000 P   0  0  0  0  0  0  0  0  0  0  0  0
   -0.7500    1.2990    0.0000 C   0  0  0  0  0  0  0  0  0  0  0  0
    0.0000    2.5981    0.0000 C   0  0  0  0  0  0  0  0  0  0  0  0
   -0.7500    3.8971    0.0000 C   0  0  0  0  0  0  0  0  0  0  0  0
   -2.2500    3.8971    0.0000 C   0  0  0  0  0  0  0  0  0  0  0  0
   -3.0000    5.1962    0.0000 C   0  0  0  0  0  0  0  0  0  0  0  0
   -3.0000    2.5981    0.0000 C   0  0  0  0  0  0  0  0  0  0  0  0
   -2.2500    1.2990    0.0000 C   0  0  0  0  0  0  0  0  0  0  0  0
   -0.7500   -1.2990    0.0000 C   0  0  0  0  0  0  0  0  0  0  0  0
   -2.2500   -1.2990    0.0000 C   0  0  0  0  0  0  0  0  0  0  0  0
   -3.0000   -2.5981    0.0000 C   0  0  0  0  0  0  0  0  0  0  0  0
   -2.2500   -3.8971    0.0000 C   0  0  0  0  0  0  0  0  0  0  0  0
   -3.0000   -5.1962    0.0000 C   0  0  0  0  0  0  0  0  0  0  0  0
   -0.7500   -3.8971    0.0000 C   0  0  0  0  0  0  0  0  0  0  0  0
   -0.0000   -2.5981    0.0000 C   0  0  0  0  0  0  0  0  0  0  0  0
    2.2500    1.2990    0.0000 C   0  0  0  0  0  0  0  0  0  0  0  0
    3.7500    1.2990    0.0000 C   0  0  0  0  0  0  0  0  0  0  0  0
  1  2  1  0
  2  3  2  0
  3  4  1  0
  4  5  2  0
  5  6  1  0
  6  7  1  0
  7  8  2  0
  8  9  1  0
  9 10  2  0
 10 11  1  0
 10 12  1  0
 12 13  2  0
  6 14  1  0
 14 15  2  0
 15 16  1  0
 16 17  2  0
 17 18  1  0
 17 19  1  0
 19 20  2  0
  5 21  1  0
 21 22  2  0
 22  2  1  0
 13  7  1  0
 20 14  1  0
M  END
>  <linear_selectivity>  (88) 
28

>  <denticity>  (88) 
1

>  <ligand_class>  (88) 
phosphine

$$$$
P(p-Tol)3_120C_dioxane
     RDKit          2D

 22 24  0  0  0  0  0  0  0  0999 V2000
    6.0000   -0.0000    0.0000 C   0  0  0  0  0  0  0  0  0  0  0  0
    4.5000   -0.0000    0.0000 C   0  0  0  0  0  0  0  0  0  0  0  0
    3.7500   -1.2990    0.0000 C   0  0  0  0  0  0  0  0  0  0  0  0
    2.2500   -1.2990    0.0000 C   0  0  0  0  0  0  0  0  0  0  0  0
    1.5000   -0.0000    0.0000 C   0  0  0  0  0  0  0  0  0  0  0  0
    0.0000   -0.0000    0.0000 P   0  0  0  0  0  0  0  0  0  0  0  0
   -0.7500    1.2990    0.0000 C   0  0  0  0  0  0  0  0  0  0  0  0
    0.0000    2.5981    0.0000 C   0  0  0  0  0  0  0  0  0  0  0  0
   -0.7500    3.8971    0.0000 C   0  0  0  0  0  0  0  0  0  0  0  0
   -2.2500    3.8971    0.0000 C   0  0  0  0  0  0  0  0  0  0  0  0
   -3.0000    5.1962    0.0000 C   0  0  0  0  0  0  0  0  0  0  0  0
   -3.0000    2.5981    0.0000 C   0  0  0  0  0  0  0  0  0  0  0  0
   -2.2500    1.2990    0.0000 C   0  0  0  0  0  0  0  0  0  0  0  0
   -0.7500   -1.2990    0.0000 C   0  0  0  0  0  0  0  0  0  0  0  0
   -2.2500   -1.2990    0.0000 C   0  0  0  0  0  0  0  0  0  0  0  0
   -3.0000   -2.5981    0.0000 C   0  0  0  0  0  0  0  0  0  0  0  0
   -2.2500   -3.8971    0.0000 C   0  0  0  0  0  0  0  0  0  0  0  0
   -3.0000   -5.1962    0.0000 C   0  0  0  0  0  0  0  0  0  0  0  0
   -0.7500   -3.8971    0.0000 C   0  0  0  0  0  0  0  0  0  0  0  0
   -0.0000   -2.5981    0.0000 C   0  0  0  0  0  0  0  0  0  0  0  0
    2.2500    1.2990    0.0000 C   0  0  0  0  0  0  0  0  0  0  0  0
    3.7500    1.2990    0.0000 C   0  0  0  0  0  0  0  0  0  0  0  0
  1  2  1  0
  2  3  2  0
  3  4  1  0
  4  5  2  0
  5  6  1  0
  6  7  1  0
  7  8  2  0
  8  9  1  0
  9 10  2  0
 10 11  1  0
 10 12  1  0
 12 13  2  0
  6 14  1  0
 14 15  2  0
 15 16  1  0
 16 17  2  0
 17 18  1  0
 17 19  1  0
 19 20  2  0
  5 21  1  0
 21 22  2  0
 22  2  1  0
 13  7  1  0
 20 14  1  0
M  END
>  <linear_selectivity>  (89) 
26

>  <denticity>  (89) 
1

>  <ligand_class>  (89) 
phosphine

$$$$
P(p-Tol)3_120C_benzene
     RDKit          2D

 22 24  0  0  0  0  0  0  0  0999 V2000
    6.0000   -0.0000    0.0000 C   0  0  0  0  0  0  0  0  0  0  0  0
    4.5000   -0.0000    0.0000 C   0  0  0  0  0  0  0  0  0  0  0  0
    3.7500   -1.2990    0.0000 C   0  0  0  0  0  0  0  0  0  0  0  0
    2.2500   -1.2990    0.0000 C   0  0  0  0  0  0  0  0  0  0  0  0
    1.5000   -0.0000    0.0000 C   0  0  0  0  0  0  0  0  0  0  0  0
    0.0000   -0.0000    0.0000 P   0  0  0  0  0  0  0  0  0  0  0  0
   -0.7500    1.2990    0.0000 C   0  0  0  0  0  0  0  0  0  0  0  0
    0.0000    2.5981    0.0000 C   0  0  0  0  0  0  0  0  0  0  0  0
   -0.7500    3.8971    0.0000 C   0  0  0  0  0  0  0  0  0  0  0  0
   -2.2500    3.8971    0.0000 C   0  0  0  0  0  0  0  0  0  0  0  0
   -3.0000    5.1962    0.0000 C   0  0  0  0  0  0  0  0  0  0  0  0
   -3.0000    2.5981    0.0000 C   0  0  0  0  0  0  0  0  0  0  0  0
   -2.2500    1.2990    0.0000 C   0  0  0  0  0  0  0  0  0  0  0  0
   -0.7500   -1.2990    0.0000 C   0  0  0  0  0  0  0  0  0  0  0  0
   -2.2500   -1.2990    0.0000 C   0  0  0  0  0  0  0  0  0  0  0  0
   -3.0000   -2.5981    0.0000 C   0  0  0  0  0  0  0  0  0  0  0  0
   -2.2500   -3.8971    0.0000 C   0  0  0  0  0  0  0  0  0  0  0  0
   -3.0000   -5.1962    0.0000 C   0  0  0  0  0  0  0  0  0  0  0  0
   -0.7500   -3.8971    0.0000 C   0  0  0  0  0  0  0  0  0  0  0  0
   -0.0000   -2.5981    0.0000 C   0  0  0  0  0  0  0  0  0  0  0  0
    2.2500    1.2990    0.0000 C   0  0  0  0  0  0  0  0  0  0  0  0
    3.7500    1.2990    0.0000 C   0  0  0  0  0  0  0  0  0  0  0  0
  1  2  1  0
  2  3  2  0
  3  4  1  0
  4  5  2  0
  5  6  1  0
  6  7  1  0
  7  8  2  0
  8  9  1  0
  9 10  2  0
 10 11  1  0
 10 12  1  0
 12 13  2  0
  6 14  1  0
 14 15  2  0
 15 16  1  0
 16 17  2  0
 17 18  1  0
 17 19  1  0
 19 20  2  0
  5 21  1  0
 21 22  2  0
 22  2  1  0
 13  7  1  0
 20 14  1  0
M  END
>  <linear_selectivity>  (90) 
27

>  <denticity>  (90) 
1

>  <ligand_class>  (90) 
phosphine

$$$$
P(p-Tol)3_120C_xylene
     RDKit          2D

 22 24  0  0  0  0  0  0  0  0999 V2000
    6.0000   -0.0000    0.0000 C   0  0  0  0  0  0  0  0  0  0  0  0
    4.5000   -0.0000    0.0000 C   0  0  0  0  0  0  0  0  0  0  0  0
    3.7500   -1.2990    0.0000 C   0  0  0  0  0  0  0  0  0  0  0  0
    2.2500   -1.2990    0.0000 C   0  0  0  0  0  0  0  0  0  0  0  0
    1.5000   -0.0000    0.0000 C   0  0  0  0  0  0  0  0  0  0  0  0
    0.0000   -0.0000    0.0000 P   0  0  0  0  0  0  0  0  0  0  0  0
   -0.7500    1.2990    0.0000 C   0  0  0  0  0  0  0  0  0  0  0  0
    0.0000    2.5981    0.0000 C   0  0  0  0  0  0  0  0  0  0  0  0
   -0.7500    3.8971    0.0000 C   0  0  0  0  0  0  0  0  0  0  0  0
   -2.2500    3.8971    0.0000 C   0  0  0  0  0  0  0  0  0  0  0  0
   -3.0000    5.1962    0.0000 C   0  0  0  0  0  0  0  0  0  0  0  0
   -3.0000    2.5981    0.0000 C   0  0  0  0  0  0  0  0  0  0  0  0
   -2.2500    1.2990    0.0000 C   0  0  0  0  0  0  0  0  0  0  0  0
   -0.7500   -1.2990    0.0000 C   0  0  0  0  0  0  0  0  0  0  0  0
   -2.2500   -1.2990    0.0000 C   0  0  0  0  0  0  0  0  0  0  0  0
   -3.0000   -2.5981    0.0000 C   0  0  0  0  0  0  0  0  0  0  0  0
   -2.2500   -3.8971    0.0000 C   0  0  0  0  0  0  0  0  0  0  0  0
   -3.0000   -5.1962    0.0000 C   0  0  0  0  0  0  0  0  0  0  0  0
   -0.7500   -3.8971    0.0000 C   0  0  0  0  0  0  0  0  0  0  0  0
   -0.0000   -2.5981    0.0000 C   0  0  0  0  0  0  0  0  0  0  0  0
    2.2500    1.2990    0.0000 C   0  0  0  0  0  0  0  0  0  0  0  0
    3.7500    1.2990    0.0000 C   0  0  0  0  0  0  0  0  0  0  0  0
  1  2  1  0
  2  3  2  0
  3  4  1  0
  4  5  2  0
  5  6  1  0
  6  7  1  0
  7  8  2  0
  8  9  1  0
  9 10  2  0
 10 11  1  0
 10 12  1  0
 12 13  2  0
  6 14  1  0
 14 15  2  0
 15 16  1  0
 16 17  2  0
 17 18  1  0
 17 19  1  0
 19 20  2  0
  5 21  1  0
 21 22  2  0
 22  2  1  0
 13  7  1  0
 20 14  1  0
M  END
>  <linear_selectivity>  (91) 
27

>  <denticity>  (91) 
1

>  <ligand_class>  (91) 
phosphine

$$$$
P(p-Tol)3_130C_toluene
     RDKit          2D

 22 24  0  0  0  0  0  0  0  0999 V2000
    6.0000   -0.0000    0.0000 C   0  0  0  0  0  0  0  0  0  0  0  0
    4.5000   -0.0000    0.0000 C   0  0  0  0  0  0  0  0  0  0  0  0
    3.7500   -1.2990    0.0000 C   0  0  0  0  0  0  0  0  0  0  0  0
    2.2500   -1.2990    0.0000 C   0  0  0  0  0  0  0  0  0  0  0  0
    1.5000   -0.0000    0.0000 C   0  0  0  0  0  0  0  0  0  0  0  0
    0.0000   -0.0000    0.0000 P   0  0  0  0  0  0  0  0  0  0  0  0
   -0.7500    1.2990    0.0000 C   0  0  0  0  0  0  0  0  0  0  0  0
    0.0000    2.5981    0.0000 C   0  0  0  0  0  0  0  0  0  0  0  0
   -0.7500    3.8971    0.0000 C   0  0  0  0  0  0  0  0  0  0  0  0
   -2.2500    3.8971    0.0000 C   0  0  0  0  0  0  0  0  0  0  0  0
   -3.0000    5.1962    0.0000 C   0  0  0  0  0  0  0  0  0  0  0  0
   -3.0000    2.5981    0.0000 C   0  0  0  0  0  0  0  0  0  0  0  0
   -2.2500    1.2990    0.0000 C   0  0  0  0  0  0  0  0  0  0  0  0
   -0.7500   -1.2990    0.0000 C   0  0  0  0  0  0  0  0  0  0  0  0
   -2.2500   -1.2990    0.0000 C   0  0  0  0  0  0  0  0  0  0  0  0
   -3.0000   -2.5981    0.0000 C   0  0  0  0  0  0  0  0  0  0  0  0
   -2.2500   -3.8971    0.0000 C   0  0  0  0  0  0  0  0  0  0  0  0
   -3.0000   -5.1962    0.0000 C   0  0  0  0  0  0  0  0  0  0  0  0
   -0.7500   -3.8971    0.0000 C   0  0  0  0  0  0  0  0  0  0  0  0
   -0.0000   -2.5981    0.0000 C   0  0  0  0  0  0  0  0  0  0  0  0
    2.2500    1.2990    0.0000 C   0  0  0  0  0  0  0  0  0  0  0  0
    3.7500    1.2990    0.0000 C   0  0  0  0  0  0  0  0  0  0  0  0
  1  2  1  0
  2  3  2  0
  3  4  1  0
  4  5  2  0
  5  6  1  0
  6  7  1  0
  7  8  2  0
  8  9  1  0
  9 10  2  0
 10 11  1  0
 10 12  1  0
 12 13  2  0
  6 14  1  0
 14 15  2  0
 15 16  1  0
 16 17  2  0
 17 18  1  0
 17 19  1  0
 19 20  2  0
  5 21  1  0
 21 22  2  0
 22  2  1  0
 13  7  1  0
 20 14  1  0
M  END
>  <linear_selectivity>  (92) 
23

>  <denticity>  (92) 
1

>  <ligand_class>  (92) 
phosphine

$$$$
P(p-Tol)3_130C_hexane
     RDKit          2D

 22 24  0  0  0  0  0  0  0  0999 V2000
    6.0000   -0.0000    0.0000 C   0  0  0  0  0  0  0  0  0  0  0  0
    4.5000   -0.0000    0.0000 C   0  0  0  0  0  0  0  0  0  0  0  0
    3.7500   -1.2990    0.0000 C   0  0  0  0  0  0  0  0  0  0  0  0
    2.2500   -1.2990    0.0000 C   0  0  0  0  0  0  0  0  0  0  0  0
    1.5000   -0.0000    0.0000 C   0  0  0  0  0  0  0  0  0  0  0  0
    0.0000   -0.0000    0.0000 P   0  0  0  0  0  0  0  0  0  0  0  0
   -0.7500    1.2990    0.0000 C   0  0  0  0  0  0  0  0  0  0  0  0
    0.0000    2.5981    0.0000 C   0  0  0  0  0  0  0  0  0  0  0  0
   -0.7500    3.8971    0.0000 C   0  0  0  0  0  0  0  0  0  0  0  0
   -2.2500    3.8971    0.0000 C   0  0  0  0  0  0  0  0  0  0  0  0
   -3.0000    5.1962    0.0000 C   0  0  0  0  0  0  0  0  0  0  0  0
   -3.0000    2.5981    0.0000 C   0  0  0  0  0  0  0  0  0  0  0  0
   -2.2500    1.2990    0.0000 C   0  0  0  0  0  0  0  0  0  0  0  0
   -0.7500   -1.2990    0.0000 C   0  0  0  0  0  0  0  0  0  0  0  0
   -2.2500   -1.2990    0.0000 C   0  0  0  0  0  0  0  0  0  0  0  0
   -3.0000   -2.5981    0.0000 C   0  0  0  0  0  0  0  0  0  0  0  0
   -2.2500   -3.8971    0.0000 C   0  0  0  0  0  0  0  0  0  0  0  0
   -3.0000   -5.1962    0.0000 C   0  0  0  0  0  0  0  0  0  0  0  0
   -0.7500   -3.8971    0.0000 C   0  0  0  0  0  0  0  0  0  0  0  0
   -0.0000   -2.5981    0.0000 C   0  0  0  0  0  0  0  0  0  0  0  0
    2.2500    1.2990    0.0000 C   0  0  0  0  0  0  0  0  0  0  0  0
    3.7500    1.2990    0.0000 C   0  0  0  0  0  0  0  0  0  0  0  0
  1  2  1  0
  2  3  2  0
  3  4  1  0
  4  5  2  0
  5  6  1  0
  6  7  1  0
  7  8  2  0
  8  9  1  0
  9 10  2  0
 10 11  1  0
 10 12  1  0
 12 13  2  0
  6 14  1  0
 14 15  2  0
 15 16  1  0
 16 17  2  0
 17 18  1  0
 17 19  1  0
 19 20  2  0
  5 21  1  0
 21 22  2  0
 22  2  1  0
 13  7  1  0
 20 14  1  0
M  END
>  <linear_selectivity>  (93) 
27

>  <denticity>  (93) 
1

>  <ligand_class>  (93) 
phosphine

$$$$
P(p-Tol)3_130C_xylene
     RDKit          2D

 22 24  0  0  0  0  0  0  0  0999 V2000
    6.0000   -0.0000    0.0000 C   0  0  0  0  0  0  0  0  0  0  0  0
    4.5000   -0.0000    0.0000 C   0  0  0  0  0  0  0  0  0  0  0  0
    3.7500   -1.2990    0.0000 C   0  0  0  0  0  0  0  0  0  0  0  0
    2.2500   -1.2990    0.0000 C   0  0  0  0  0  0  0  0  0  0  0  0
    1.5000   -0.0000    0.0000 C   0  0  0  0  0  0  0  0  0  0  0  0
    0.0000   -0.0000    0.0000 P   0  0  0  0  0  0  0  0  0  0  0  0
   -0.7500    1.2990    0.0000 C   0  0  0  0  0  0  0  0  0  0  0  0
    0.0000    2.5981    0.0000 C   0  0  0  0  0  0  0  0  0  0  0  0
   -0.7500    3.8971    0.0000 C   0  0  0  0  0  0  0  0  0  0  0  0
   -2.2500    3.8971    0.0000 C   0  0  0  0  0  0  0  0  0  0  0  0
   -3.0000    5.1962    0.0000 C   0  0  0  0  0  0  0  0  0  0  0  0
   -3.0000    2.5981    0.0000 C   0  0  0  0  0  0  0  0  0  0  0  0
   -2.2500    1.2990    0.0000 C   0  0  0  0  0  0  0  0  0  0  0  0
   -0.7500   -1.2990    0.0000 C   0  0  0  0  0  0  0  0  0  0  0  0
   -2.2500   -1.2990    0.0000 C   0  0  0  0  0  0  0  0  0  0  0  0
   -3.0000   -2.5981    0.0000 C   0  0  0  0  0  0  0  0  0  0  0  0
   -2.2500   -3.8971    0.0000 C   0  0  0  0  0  0  0  0  0  0  0  0
   -3.0000   -5.1962    0.0000 C   0  0  0  0  0  0  0  0  0  0  0  0
   -0.7500   -3.8971    0.0000 C   0  0  0  0  0  0  0  0  0  0  0  0
   -0.0000   -2.5981    0.0000 C   0  0  0  0  0  0  0  0  0  0  0  0
    2.2500    1.2990    0.0000 C   0  0  0  0  0  0  0  0  0  0  0  0
    3.7500    1.2990    0.0000 C   0  0  0  0  0  0  0  0  0  0  0  0
  1  2  1  0
  2  3  2  0
  3  4  1  0
  4  5  2  0
  5  6  1  0
  6  7  1  0
  7  8  2  0
  8  9  1  0
  9 10  2  0
 10 11  1  0
 10 12  1  0
 12 13  2  0
  6 14  1  0
 14 15  2  0
 15 16  1  0
 16 17  2  0
 17 18  1  0
 17 19  1  0
 19 20  2  0
  5 21  1  0
 21 22  2  0
 22  2  1  0
 13  7  1  0
 20 14  1  0
M  END
>  <linear_selectivity>  (94) 
25

>  <denticity>  (94) 
1

>  <ligand_class>  (94) 
phosphine

$$$$
P(m-Tol)3
     RDKit          2D

 22 24  0  0  0  0  0  0  0  0999 V2000
    4.5000    2.5981    0.0000 C   0  0  0  0  0  0  0  0  0  0  0  0
    3.0000    2.5981    0.0000 C   0  0  0  0  0  0  0  0  0  0  0  0
    2.2500    1.2990    0.0000 C   0  0  0  0  0  0  0  0  0  0  0  0
    0.7500    1.2990    0.0000 C   0  0  0  0  0  0  0  0  0  0  0  0
    0.0000    2.5981    0.0000 C   0  0  0  0  0  0  0  0  0  0  0  0
    0.7500    3.8971    0.0000 C   0  0  0  0  0  0  0  0  0  0  0  0
    2.2500    3.8971    0.0000 C   0  0  0  0  0  0  0  0  0  0  0  0
    0.0000   -0.0000    0.0000 P   0  0  0  0  0  0  0  0  0  0  0  0
   -1.5000    0.0000    0.0000 C   0  0  0  0  0  0  0  0  0  0  0  0
   -2.2500    1.2990    0.0000 C   0  0  0  0  0  0  0  0  0  0  0  0
   -3.7500    1.2990    0.0000 C   0  0  0  0  0  0  0  0  0  0  0  0
   -4.5000    2.5981    0.0000 C   0  0  0  0  0  0  0  0  0  0  0  0
   -4.5000    0.0000    0.0000 C   0  0  0  0  0  0  0  0  0  0  0  0
   -3.7500   -1.2990    0.0000 C   0  0  0  0  0  0  0  0  0  0  0  0
   -2.2500   -1.2990    0.0000 C   0  0  0  0  0  0  0  0  0  0  0  0
    0.7500   -1.2990    0.0000 C   0  0  0  0  0  0  0  0  0  0  0  0
   -0.0000   -2.5981    0.0000 C   0  0  0  0  0  0  0  0  0  0  0  0
    0.7500   -3.8971    0.0000 C   0  0  0  0  0  0  0  0  0  0  0  0
   -0.0000   -5.1962    0.0000 C   0  0  0  0  0  0  0  0  0  0  0  0
    2.2500   -3.8971    0.0000 C   0  0  0  0  0  0  0  0  0  0  0  0
    3.0000   -2.5981    0.0000 C   0  0  0  0  0  0  0  0  0  0  0  0
    2.2500   -1.2990    0.0000 C   0  0  0  0  0  0  0  0  0  0  0  0
  1  2  1  0
  2  3  2  0
  3  4  1  0
  4  5  2  0
  5  6  1  0
  6  7  2  0
  4  8  1  0
  8  9  1  0
  9 10  2  0
 10 11  1  0
 11 12  1  0
 11 13  2  0
 13 14  1  0
 14 15  2  0
  8 16  1  0
 16 17  2  0
 17 18  1  0
 18 19  1  0
 18 20  2  0
 20 21  1  0
 21 22  2  0
  7  2  1  0
 15  9  1  0
 22 16  1  0
M  END
>  <linear_selectivity>  (95) 
30

>  <denticity>  (95) 
1

>  <ligand_class>  (95) 
phosphine

$$$$
P(m-Tol)3_70C_hexane
     RDKit          2D

 22 24  0  0  0  0  0  0  0  0999 V2000
    4.5000    2.5981    0.0000 C   0  0  0  0  0  0  0  0  0  0  0  0
    3.0000    2.5981    0.0000 C   0  0  0  0  0  0  0  0  0  0  0  0
    2.2500    1.2990    0.0000 C   0  0  0  0  0  0  0  0  0  0  0  0
    0.7500    1.2990    0.0000 C   0  0  0  0  0  0  0  0  0  0  0  0
    0.0000    2.5981    0.0000 C   0  0  0  0  0  0  0  0  0  0  0  0
    0.7500    3.8971    0.0000 C   0  0  0  0  0  0  0  0  0  0  0  0
    2.2500    3.8971    0.0000 C   0  0  0  0  0  0  0  0  0  0  0  0
    0.0000   -0.0000    0.0000 P   0  0  0  0  0  0  0  0  0  0  0  0
   -1.5000    0.0000    0.0000 C   0  0  0  0  0  0  0  0  0  0  0  0
   -2.2500    1.2990    0.0000 C   0  0  0  0  0  0  0  0  0  0  0  0
   -3.7500    1.2990    0.0000 C   0  0  0  0  0  0  0  0  0  0  0  0
   -4.5000    2.5981    0.0000 C   0  0  0  0  0  0  0  0  0  0  0  0
   -4.5000    0.0000    0.0000 C   0  0  0  0  0  0  0  0  0  0  0  0
   -3.7500   -1.2990    0.0000 C   0  0  0  0  0  0  0  0  0  0  0  0
   -2.2500   -1.2990    0.0000 C   0  0  0  0  0  0  0  0  0  0  0  0
    0.7500   -1.2990    0.0000 C   0  0  0  0  0  0  0  0  0  0  0  0
   -0.0000   -2.5981    0.0000 C   0  0  0  0  0  0  0  0  0  0  0  0
    0.7500   -3.8971    0.0000 C   0  0  0  0  0  0  0  0  0  0  0  0
   -0.0000   -5.1962    0.0000 C   0  0  0  0  0  0  0  0  0  0  0  0
    2.2500   -3.8971    0.0000 C   0  0  0  0  0  0  0  0  0  0  0  0
    3.0000   -2.5981    0.0000 C   0  0  0  0  0  0  0  0  0  0  0  0
    2.2500   -1.2990    0.0000 C   0  0  0  0  0  0  0  0  0  0  0  0
  1  2  1  0
  2  3  2  0
  3  4  1  0
  4  5  2  0
  5  6  1  0
  6  7  2  0
  4  8  1  0
  8  9  1  0
  9 10  2  0
 10 11  1  0
 11 12  1  0
 11 13  2  0
 13 14  1  0
 14 15  2  0
  8 16  1  0
 16 17  2  0
 17 18  1  0
 18 19  1  0
 18 20  2  0
 20 21  1  0
 21 22  2  0
  7  2  1  0
 15  9  1  0
 22 16  1  0
M  END
>  <linear_selectivity>  (96) 
34

>  <denticity>  (96) 
1

>  <ligand_class>  (96) 
phosphine

$$$$
P(m-Tol)3_70C_benzene
     RDKit          2D

 22 24  0  0  0  0  0  0  0  0999 V2000
    4.5000    2.5981    0.0000 C   0  0  0  0  0  0  0  0  0  0  0  0
    3.0000    2.5981    0.0000 C   0  0  0  0  0  0  0  0  0  0  0  0
    2.2500    1.2990    0.0000 C   0  0  0  0  0  0  0  0  0  0  0  0
    0.7500    1.2990    0.0000 C   0  0  0  0  0  0  0  0  0  0  0  0
    0.0000    2.5981    0.0000 C   0  0  0  0  0  0  0  0  0  0  0  0
    0.7500    3.8971    0.0000 C   0  0  0  0  0  0  0  0  0  0  0  0
    2.2500    3.8971    0.0000 C   0  0  0  0  0  0  0  0  0  0  0  0
    0.0000   -0.0000    0.0000 P   0  0  0  0  0  0  0  0  0  0  0  0
   -1.5000    0.0000    0.0000 C   0  0  0  0  0  0  0  0  0  0  0  0
   -2.2500    1.2990    0.0000 C   0  0  0  0  0  0  0  0  0  0  0  0
   -3.7500    1.2990    0.0000 C   0  0  0  0  0  0  0  0  0  0  0  0
   -4.5000    2.5981    0.0000 C   0  0  0  0  0  0  0  0  0  0  0  0
   -4.5000    0.0000    0.0000 C   0  0  0  0  0  0  0  0  0  0  0  0
   -3.7500   -1.2990    0.0000 C   0  0  0  0  0  0  0  0  0  0  0  0
   -2.2500   -1.2990    0.0000 C   0  0  0  0  0  0  0  0  0  0  0  0
    0.7500   -1.2990    0.0000 C   0  0  0  0  0  0  0  0  0  0  0  0
   -0.0000   -2.5981    0.0000 C   0  0  0  0  0  0  0  0  0  0  0  0
    0.7500   -3.8971    0.0000 C   0  0  0  0  0  0  0  0  0  0  0  0
   -0.0000   -5.1962    0.0000 C   0  0  0  0  0  0  0  0  0  0  0  0
    2.2500   -3.8971    0.0000 C   0  0  0  0  0  0  0  0  0  0  0  0
    3.0000   -2.5981    0.0000 C   0  0  0  0  0  0  0  0  0  0  0  0
    2.2500   -1.2990    0.0000 C   0  0  0  0  0  0  0  0  0  0  0  0
  1  2  1  0
  2  3  2  0
  3  4  1  0
  4  5  2  0
  5  6  1  0
  6  7  2  0
  4  8  1  0
  8  9  1  0
  9 10  2  0
 10 11  1  0
 11 12  1  0
 11 13  2  0
 13 14  1  0
 14 15  2  0
  8 16  1  0
 16 17  2  0
 17 18  1  0
 18 19  1  0
 18 20  2  0
 20 21  1  0
 21 22  2  0
  7  2  1  0
 15  9  1  0
 22 16  1  0
M  END
>  <linear_selectivity>  (97) 
32

>  <denticity>  (97) 
1

>  <ligand_class>  (97) 
phosphine

$$$$
P(m-Tol)3_80C_dioxane
     RDKit          2D

 22 24  0  0  0  0  0  0  0  0999 V2000
    4.5000    2.5981    0.0000 C   0  0  0  0  0  0  0  0  0  0  0  0
    3.0000    2.5981    0.0000 C   0  0  0  0  0  0  0  0  0  0  0  0
    2.2500    1.2990    0.0000 C   0  0  0  0  0  0  0  0  0  0  0  0
    0.7500    1.2990    0.0000 C   0  0  0  0  0  0  0  0  0  0  0  0
    0.0000    2.5981    0.0000 C   0  0  0  0  0  0  0  0  0  0  0  0
    0.7500    3.8971    0.0000 C   0  0  0  0  0  0  0  0  0  0  0  0
    2.2500    3.8971    0.0000 C   0  0  0  0  0  0  0  0  0  0  0  0
    0.0000   -0.0000    0.0000 P   0  0  0  0  0  0  0  0  0  0  0  0
   -1.5000    0.0000    0.0000 C   0  0  0  0  0  0  0  0  0  0  0  0
   -2.2500    1.2990    0.0000 C   0  0  0  0  0  0  0  0  0  0  0  0
   -3.7500    1.2990    0.0000 C   0  0  0  0  0  0  0  0  0  0  0  0
   -4.5000    2.5981    0.0000 C   0  0  0  0  0  0  0  0  0  0  0  0
   -4.5000    0.0000    0.0000 C   0  0  0  0  0  0  0  0  0  0  0  0
   -3.7500   -1.2990    0.0000 C   0  0  0  0  0  0  0  0  0  0  0  0
   -2.2500   -1.2990    0.0000 C   0  0  0  0  0  0  0  0  0  0  0  0
    0.7500   -1.2990    0.0000 C   0  0  0  0  0  0  0  0  0  0  0  0
   -0.0000   -2.5981    0.0000 C   0  0  0  0  0  0  0  0  0  0  0  0
    0.7500   -3.8971    0.0000 C   0  0  0  0  0  0  0  0  0  0  0  0
   -0.0000   -5.1962    0.0000 C   0  0  0  0  0  0  0  0  0  0  0  0
    2.2500   -3.8971    0.0000 C   0  0  0  0  0  0  0  0  0  0  0  0
    3.0000   -2.5981    0.0000 C   0  0  0  0  0  0  0  0  0  0  0  0
    2.2500   -1.2990    0.0000 C   0  0  0  0  0  0  0  0  0  0  0  0
  1  2  1  0
  2  3  2  0
  3  4  1  0
  4  5  2  0
  5  6  1  0
  6  7  2  0
  4  8  1  0
  8  9  1  0
  9 10  2  0
 10 11  1  0
 11 12  1  0
 11 13  2  0
 13 14  1  0
 14 15  2  0
  8 16  1  0
 16 17  2  0
 17 18  1  0
 18 19  1  0
 18 20  2  0
 20 21  1  0
 21 22  2  0
  7  2  1  0
 15  9  1  0
 22 16  1  0
M  END
>  <linear_selectivity>  (98) 
36

>  <denticity>  (98) 
1

>  <ligand_class>  (98) 
phosphine

$$$$
P(m-Tol)3_80C_hexane
     RDKit          2D

 22 24  0  0  0  0  0  0  0  0999 V2000
    4.5000    2.5981    0.0000 C   0  0  0  0  0  0  0  0  0  0  0  0
    3.0000    2.5981    0.0000 C   0  0  0  0  0  0  0  0  0  0  0  0
    2.2500    1.2990    0.0000 C   0  0  0  0  0  0  0  0  0  0  0  0
    0.7500    1.2990    0.0000 C   0  0  0  0  0  0  0  0  0  0  0  0
    0.0000    2.5981    0.0000 C   0  0  0  0  0  0  0  0  0  0  0  0
    0.7500    3.8971    0.0000 C   0  0  0  0  0  0  0  0  0  0  0  0
    2.2500    3.8971    0.0000 C   0  0  0  0  0  0  0  0  0  0  0  0
    0.0000   -0.0000    0.0000 P   0  0  0  0  0  0  0  0  0  0  0  0
   -1.5000    0.0000    0.0000 C   0  0  0  0  0  0  0  0  0  0  0  0
   -2.2500    1.2990    0.0000 C   0  0  0  0  0  0  0  0  0  0  0  0
   -3.7500    1.2990    0.0000 C   0  0  0  0  0  0  0  0  0  0  0  0
   -4.5000    2.5981    0.0000 C   0  0  0  0  0  0  0  0  0  0  0  0
   -4.5000    0.0000    0.0000 C   0  0  0  0  0  0  0  0  0  0  0  0
   -3.7500   -1.2990    0.0000 C   0  0  0  0  0  0  0  0  0  0  0  0
   -2.2500   -1.2990    0.0000 C   0  0  0  0  0  0  0  0  0  0  0  0
    0.7500   -1.2990    0.0000 C   0  0  0  0  0  0  0  0  0  0  0  0
   -0.0000   -2.5981    0.0000 C   0  0  0  0  0  0  0  0  0  0  0  0
    0.7500   -3.8971    0.0000 C   0  0  0  0  0  0  0  0  0  0  0  0
   -0.0000   -5.1962    0.0000 C   0  0  0  0  0  0  0  0  0  0  0  0
    2.2500   -3.8971    0.0000 C   0  0  0  0  0  0  0  0  0  0  0  0
    3.0000   -2.5981    0.0000 C   0  0  0  0  0  0  0  0  0  0  0  0
    2.2500   -1.2990    0.0000 C   0  0  0  0  0  0  0  0  0  0  0  0
  1  2  1  0
  2  3  2  0
  3  4  1  0
  4  5  2  0
  5  6  1  0
  6  7  2  0
  4  8  1  0
  8  9  1  0
  9 10  2  0
 10 11  1  0
 11 12  1  0
 11 13  2  0
 13 14  1  0
 14 15  2  0
  8 16  1  0
 16 17  2  0
 17 18  1  0
 18 19  1  0
 18 20  2  0
 20 21  1  0
 21 22  2  0
  7  2  1  0
 15  9  1  0
 22 16  1  0
M  END
>  <linear_selectivity>  (99) 
35

>  <denticity>  (99) 
1

>  <ligand_class>  (99) 
phosphine

$$$$
P(m-Tol)3_80C_benzene
     RDKit          2D

 22 24  0  0  0  0  0  0  0  0999 V2000
    4.5000    2.5981    0.0000 C   0  0  0  0  0  0  0  0  0  0  0  0
    3.0000    2.5981    0.0000 C   0  0  0  0  0  0  0  0  0  0  0  0
    2.2500    1.2990    0.0000 C   0  0  0  0  0  0  0  0  0  0  0  0
    0.7500    1.2990    0.0000 C   0  0  0  0  0  0  0  0  0  0  0  0
    0.0000    2.5981    0.0000 C   0  0  0  0  0  0  0  0  0  0  0  0
    0.7500    3.8971    0.0000 C   0  0  0  0  0  0  0  0  0  0  0  0
    2.2500    3.8971    0.0000 C   0  0  0  0  0  0  0  0  0  0  0  0
    0.0000   -0.0000    0.0000 P   0  0  0  0  0  0  0  0  0  0  0  0
   -1.5000    0.0000    0.0000 C   0  0  0  0  0  0  0  0  0  0  0  0
   -2.2500    1.2990    0.0000 C   0  0  0  0  0  0  0  0  0  0  0  0
   -3.7500    1.2990    0.0000 C   0  0  0  0  0  0  0  0  0  0  0  0
   -4.5000    2.5981    0.0000 C   0  0  0  0  0  0  0  0  0  0  0  0
   -4.5000    0.0000    0.0000 C   0  0  0  0  0  0  0  0  0  0  0  0
   -3.7500   -1.2990    0.0000 C   0  0  0  0  0  0  0  0  0  0  0  0
   -2.2500   -1.2990    0.0000 C   0  0  0  0  0  0  0  0  0  0  0  0
    0.7500   -1.2990    0.0000 C   0  0  0  0  0  0  0  0  0  0  0  0
   -0.0000   -2.5981    0.0000 C   0  0  0  0  0  0  0  0  0  0  0  0
    0.7500   -3.8971    0.0000 C   0  0  0  0  0  0  0  0  0  0  0  0
   -0.0000   -5.1962    0.0000 C   0  0  0  0  0  0  0  0  0  0  0  0
    2.2500   -3.8971    0.0000 C   0  0  0  0  0  0  0  0  0  0  0  0
    3.0000   -2.5981    0.0000 C   0  0  0  0  0  0  0  0  0  0  0  0
    2.2500   -1.2990    0.0000 C   0  0  0  0  0  0  0  0  0  0  0  0
  1  2  1  0
  2  3  2  0
  3  4  1  0
  4  5  2  0
  5  6  1  0
  6  7  2  0
  4  8  1  0
  8  9  1  0
  9 10  2  0
 10 11  1  0
 11 12  1  0
 11 13  2  0
 13 14  1  0
 14 15  2  0
  8 16  1  0
 16 17  2  0
 17 18  1  0
 18 19  1  0
 18 20  2  0
 20 21  1  0
 21 22  2  0
  7  2  1  0
 15  9  1  0
 22 16  1  0
M  END
>  <linear_selectivity>  (100) 
33

>  <denticity>  (100) 
1

>  <ligand_class>  (100) 
phosphine

$$$$
P(m-Tol)3_90C_THF
     RDKit          2D

 22 24  0  0  0  0  0  0  0  0999 V2000
    4.5000    2.5981    0.0000 C   0  0  0  0  0  0  0  0  0  0  0  0
    3.0000    2.5981    0.0000 C   0  0  0  0  0  0  0  0  0  0  0  0
    2.2500    1.2990    0.0000 C   0  0  0  0  0  0  0  0  0  0  0  0
    0.7500    1.2990    0.0000 C   0  0  0  0  0  0  0  0  0  0  0  0
    0.0000    2.5981    0.0000 C   0  0  0  0  0  0  0  0  0  0  0  0
    0.7500    3.8971    0.0000 C   0  0  0  0  0  0  0  0  0  0  0  0
    2.2500    3.8971    0.0000 C   0  0  0  0  0  0  0  0  0  0  0  0
    0.0000   -0.0000    0.0000 P   0  0  0  0  0  0  0  0  0  0  0  0
   -1.5000    0.0000    0.0000 C   0  0  0  0  0  0  0  0  0  0  0  0
   -2.2500    1.2990    0.0000 C   0  0  0  0  0  0  0  0  0  0  0  0
   -3.7500    1.2990    0.0000 C   0  0  0  0  0  0  0  0  0  0  0  0
   -4.5000    2.5981    0.0000 C   0  0  0  0  0  0  0  0  0  0  0  0
   -4.5000    0.0000    0.0000 C   0  0  0  0  0  0  0  0  0  0  0  0
   -3.7500   -1.2990    0.0000 C   0  0  0  0  0  0  0  0  0  0  0  0
   -2.2500   -1.2990    0.0000 C   0  0  0  0  0  0  0  0  0  0  0  0
    0.7500   -1.2990    0.0000 C   0  0  0  0  0  0  0  0  0  0  0  0
   -0.0000   -2.5981    0.0000 C   0  0  0  0  0  0  0  0  0  0  0  0
    0.7500   -3.8971    0.0000 C   0  0  0  0  0  0  0  0  0  0  0  0
   -0.0000   -5.1962    0.0000 C   0  0  0  0  0  0  0  0  0  0  0  0
    2.2500   -3.8971    0.0000 C   0  0  0  0  0  0  0  0  0  0  0  0
    3.0000   -2.5981    0.0000 C   0  0  0  0  0  0  0  0  0  0  0  0
    2.2500   -1.2990    0.0000 C   0  0  0  0  0  0  0  0  0  0  0  0
  1  2  1  0
  2  3  2  0
  3  4  1  0
  4  5  2  0
  5  6  1  0
  6  7  2  0
  4  8  1  0
  8  9  1  0
  9 10  2  0
 10 11  1  0
 11 12  1  0
 11 13  2  0
 13 14  1  0
 14 15  2  0
  8 16  1  0
 16 17  2  0
 17 18  1  0
 18 19  1  0
 18 20  2  0
 20 21  1  0
 21 22  2  0
  7  2  1  0
 15  9  1  0
 22 16  1  0
M  END
>  <linear_selectivity>  (101) 
33

>  <denticity>  (101) 
1

>  <ligand_class>  (101) 
phosphine

$$$$
P(m-Tol)3_90C_dioxane
     RDKit          2D

 22 24  0  0  0  0  0  0  0  0999 V2000
    4.5000    2.5981    0.0000 C   0  0  0  0  0  0  0  0  0  0  0  0
    3.0000    2.5981    0.0000 C   0  0  0  0  0  0  0  0  0  0  0  0
    2.2500    1.2990    0.0000 C   0  0  0  0  0  0  0  0  0  0  0  0
    0.7500    1.2990    0.0000 C   0  0  0  0  0  0  0  0  0  0  0  0
    0.0000    2.5981    0.0000 C   0  0  0  0  0  0  0  0  0  0  0  0
    0.7500    3.8971    0.0000 C   0  0  0  0  0  0  0  0  0  0  0  0
    2.2500    3.8971    0.0000 C   0  0  0  0  0  0  0  0  0  0  0  0
    0.0000   -0.0000    0.0000 P   0  0  0  0  0  0  0  0  0  0  0  0
   -1.5000    0.0000    0.0000 C   0  0  0  0  0  0  0  0  0  0  0  0
   -2.2500    1.2990    0.0000 C   0  0  0  0  0  0  0  0  0  0  0  0
   -3.7500    1.2990    0.0000 C   0  0  0  0  0  0  0  0  0  0  0  0
   -4.5000    2.5981    0.0000 C   0  0  0  0  0  0  0  0  0  0  0  0
   -4.5000    0.0000    0.0000 C   0  0  0  0  0  0  0  0  0  0  0  0
   -3.7500   -1.2990    0.0000 C   0  0  0  0  0  0  0  0  0  0  0  0
   -2.2500   -1.2990    0.0000 C   0  0  0  0  0  0  0  0  0  0  0  0
    0.7500   -1.2990    0.0000 C   0  0  0  0  0  0  0  0  0  0  0  0
   -0.0000   -2.5981    0.0000 C   0  0  0  0  0  0  0  0  0  0  0  0
    0.7500   -3.8971    0.0000 C   0  0  0  0  0  0  0  0  0  0  0  0
   -0.0000   -5.1962    0.0000 C   0  0  0  0  0  0  0  0  0  0  0  0
    2.2500   -3.8971    0.0000 C   0  0  0  0  0  0  0  0  0  0  0  0
    3.0000   -2.5981    0.0000 C   0  0  0  0  0  0  0  0  0  0  0  0
    2.2500   -1.2990    0.0000 C   0  0  0  0  0  0  0  0  0  0  0  0
  1  2  1  0
  2  3  2  0
  3  4  1  0
  4  5  2  0
  5  6  1  0
  6  7  2  0
  4  8  1  0
  8  9  1  0
  9 10  2  0
 10 11  1  0
 11 12  1  0
 11 13  2  0
 13 14  1  0
 14 15  2  0
  8 16  1  0
 16 17  2  0
 17 18  1  0
 18 19  1  0
 18 20  2  0
 20 21  1  0
 21 22  2  0
  7  2  1  0
 15  9  1  0
 22 16  1  0
M  END
>  <linear_selectivity>  (102) 
30

>  <denticity>  (102) 
1

>  <ligand_class>  (102) 
phosphine

$$$$
P(m-Tol)3_90C_hexane
     RDKit          2D

 22 24  0  0  0  0  0  0  0  0999 V2000
    4.5000    2.5981    0.0000 C   0  0  0  0  0  0  0  0  0  0  0  0
    3.0000    2.5981    0.0000 C   0  0  0  0  0  0  0  0  0  0  0  0
    2.2500    1.2990    0.0000 C   0  0  0  0  0  0  0  0  0  0  0  0
    0.7500    1.2990    0.0000 C   0  0  0  0  0  0  0  0  0  0  0  0
    0.0000    2.5981    0.0000 C   0  0  0  0  0  0  0  0  0  0  0  0
    0.7500    3.8971    0.0000 C   0  0  0  0  0  0  0  0  0  0  0  0
    2.2500    3.8971    0.0000 C   0  0  0  0  0  0  0  0  0  0  0  0
    0.0000   -0.0000    0.0000 P   0  0  0  0  0  0  0  0  0  0  0  0
   -1.5000    0.0000    0.0000 C   0  0  0  0  0  0  0  0  0  0  0  0
   -2.2500    1.2990    0.0000 C   0  0  0  0  0  0  0  0  0  0  0  0
   -3.7500    1.2990    0.0000 C   0  0  0  0  0  0  0  0  0  0  0  0
   -4.5000    2.5981    0.0000 C   0  0  0  0  0  0  0  0  0  0  0  0
   -4.5000    0.0000    0.0000 C   0  0  0  0  0  0  0  0  0  0  0  0
   -3.7500   -1.2990    0.0000 C   0  0  0  0  0  0  0  0  0  0  0  0
   -2.2500   -1.2990    0.0000 C   0  0  0  0  0  0  0  0  0  0  0  0
    0.7500   -1.2990    0.0000 C   0  0  0  0  0  0  0  0  0  0  0  0
   -0.0000   -2.5981    0.0000 C   0  0  0  0  0  0  0  0  0  0  0  0
    0.7500   -3.8971    0.0000 C   0  0  0  0  0  0  0  0  0  0  0  0
   -0.0000   -5.1962    0.0000 C   0  0  0  0  0  0  0  0  0  0  0  0
    2.2500   -3.8971    0.0000 C   0  0  0  0  0  0  0  0  0  0  0  0
    3.0000   -2.5981    0.0000 C   0  0  0  0  0  0  0  0  0  0  0  0
    2.2500   -1.2990    0.0000 C   0  0  0  0  0  0  0  0  0  0  0  0
  1  2  1  0
  2  3  2  0
  3  4  1  0
  4  5  2  0
  5  6  1  0
  6  7  2  0
  4  8  1  0
  8  9  1  0
  9 10  2  0
 10 11  1  0
 11 12  1  0
 11 13  2  0
 13 14  1  0
 14 15  2  0
  8 16  1  0
 16 17  2  0
 17 18  1  0
 18 19  1  0
 18 20  2  0
 20 21  1  0
 21 22  2  0
  7  2  1  0
 15  9  1  0
 22 16  1  0
M  END
>  <linear_selectivity>  (103) 
33

>  <denticity>  (103) 
1

>  <ligand_class>  (103) 
phosphine

$$$$
P(m-Tol)3_90C_benzene
     RDKit          2D

 22 24  0  0  0  0  0  0  0  0999 V2000
    4.5000    2.5981    0.0000 C   0  0  0  0  0  0  0  0  0  0  0  0
    3.0000    2.5981    0.0000 C   0  0  0  0  0  0  0  0  0  0  0  0
    2.2500    1.2990    0.0000 C   0  0  0  0  0  0  0  0  0  0  0  0
    0.7500    1.2990    0.0000 C   0  0  0  0  0  0  0  0  0  0  0  0
    0.0000    2.5981    0.0000 C   0  0  0  0  0  0  0  0  0  0  0  0
    0.7500    3.8971    0.0000 C   0  0  0  0  0  0  0  0  0  0  0  0
    2.2500    3.8971    0.0000 C   0  0  0  0  0  0  0  0  0  0  0  0
    0.0000   -0.0000    0.0000 P   0  0  0  0  0  0  0  0  0  0  0  0
   -1.5000    0.0000    0.0000 C   0  0  0  0  0  0  0  0  0  0  0  0
   -2.2500    1.2990    0.0000 C   0  0  0  0  0  0  0  0  0  0  0  0
   -3.7500    1.2990    0.0000 C   0  0  0  0  0  0  0  0  0  0  0  0
   -4.5000    2.5981    0.0000 C   0  0  0  0  0  0  0  0  0  0  0  0
   -4.5000    0.0000    0.0000 C   0  0  0  0  0  0  0  0  0  0  0  0
   -3.7500   -1.2990    0.0000 C   0  0  0  0  0  0  0  0  0  0  0  0
   -2.2500   -1.2990    0.0000 C   0  0  0  0  0  0  0  0  0  0  0  0
    0.7500   -1.2990    0.0000 C   0  0  0  0  0  0  0  0  0  0  0  0
   -0.0000   -2.5981    0.0000 C   0  0  0  0  0  0  0  0  0  0  0  0
    0.7500   -3.8971    0.0000 C   0  0  0  0  0  0  0  0  0  0  0  0
   -0.0000   -5.1962    0.0000 C   0  0  0  0  0  0  0  0  0  0  0  0
    2.2500   -3.8971    0.0000 C   0  0  0  0  0  0  0  0  0  0  0  0
    3.0000   -2.5981    0.0000 C   0  0  0  0  0  0  0  0  0  0  0  0
    2.2500   -1.2990    0.0000 C   0  0  0  0  0  0  0  0  0  0  0  0
  1  2  1  0
  2  3  2  0
  3  4  1  0
  4  5  2  0
  5  6  1  0
  6  7  2  0
  4  8  1  0
  8  9  1  0
  9 10  2  0
 10 11  1  0
 11 12  1  0
 11 13  2  0
 13 14  1  0
 14 15  2  0
  8 16  1  0
 16 17  2  0
 17 18  1  0
 18 19  1  0
 18 20  2  0
 20 21  1  0
 21 22  2  0
  7  2  1  0
 15  9  1  0
 22 16  1  0
M  END
>  <linear_selectivity>  (104) 
31

>  <denticity>  (104) 
1

>  <ligand_class>  (104) 
phosphine

$$$$
P(m-Tol)3_90C_xylene
     RDKit          2D

 22 24  0  0  0  0  0  0  0  0999 V2000
    4.5000    2.5981    0.0000 C   0  0  0  0  0  0  0  0  0  0  0  0
    3.0000    2.5981    0.0000 C   0  0  0  0  0  0  0  0  0  0  0  0
    2.2500    1.2990    0.0000 C   0  0  0  0  0  0  0  0  0  0  0  0
    0.7500    1.2990    0.0000 C   0  0  0  0  0  0  0  0  0  0  0  0
    0.0000    2.5981    0.0000 C   0  0  0  0  0  0  0  0  0  0  0  0
    0.7500    3.8971    0.0000 C   0  0  0  0  0  0  0  0  0  0  0  0
    2.2500    3.8971    0.0000 C   0  0  0  0  0  0  0  0  0  0  0  0
    0.0000   -0.0000    0.0000 P   0  0  0  0  0  0  0  0  0  0  0  0
   -1.5000    0.0000    0.0000 C   0  0  0  0  0  0  0  0  0  0  0  0
   -2.2500    1.2990    0.0000 C   0  0  0  0  0  0  0  0  0  0  0  0
   -3.7500    1.2990    0.0000 C   0  0  0  0  0  0  0  0  0  0  0  0
   -4.5000    2.5981    0.0000 C   0  0  0  0  0  0  0  0  0  0  0  0
   -4.5000    0.0000    0.0000 C   0  0  0  0  0  0  0  0  0  0  0  0
   -3.7500   -1.2990    0.0000 C   0  0  0  0  0  0  0  0  0  0  0  0
   -2.2500   -1.2990    0.0000 C   0  0  0  0  0  0  0  0  0  0  0  0
    0.7500   -1.2990    0.0000 C   0  0  0  0  0  0  0  0  0  0  0  0
   -0.0000   -2.5981    0.0000 C   0  0  0  0  0  0  0  0  0  0  0  0
    0.7500   -3.8971    0.0000 C   0  0  0  0  0  0  0  0  0  0  0  0
   -0.0000   -5.1962    0.0000 C   0  0  0  0  0  0  0  0  0  0  0  0
    2.2500   -3.8971    0.0000 C   0  0  0  0  0  0  0  0  0  0  0  0
    3.0000   -2.5981    0.0000 C   0  0  0  0  0  0  0  0  0  0  0  0
    2.2500   -1.2990    0.0000 C   0  0  0  0  0  0  0  0  0  0  0  0
  1  2  1  0
  2  3  2  0
  3  4  1  0
  4  5  2  0
  5  6  1  0
  6  7  2  0
  4  8  1  0
  8  9  1  0
  9 10  2  0
 10 11  1  0
 11 12  1  0
 11 13  2  0
 13 14  1  0
 14 15  2  0
  8 16  1  0
 16 17  2  0
 17 18  1  0
 18 19  1  0
 18 20  2  0
 20 21  1  0
 21 22  2  0
  7  2  1  0
 15  9  1  0
 22 16  1  0
M  END
>  <linear_selectivity>  (105) 
30

>  <denticity>  (105) 
1

>  <ligand_class>  (105) 
phosphine

$$$$
P(m-Tol)3_100C_toluene
     RDKit          2D

 22 24  0  0  0  0  0  0  0  0999 V2000
    4.5000    2.5981    0.0000 C   0  0  0  0  0  0  0  0  0  0  0  0
    3.0000    2.5981    0.0000 C   0  0  0  0  0  0  0  0  0  0  0  0
    2.2500    1.2990    0.0000 C   0  0  0  0  0  0  0  0  0  0  0  0
    0.7500    1.2990    0.0000 C   0  0  0  0  0  0  0  0  0  0  0  0
    0.0000    2.5981    0.0000 C   0  0  0  0  0  0  0  0  0  0  0  0
    0.7500    3.8971    0.0000 C   0  0  0  0  0  0  0  0  0  0  0  0
    2.2500    3.8971    0.0000 C   0  0  0  0  0  0  0  0  0  0  0  0
    0.0000   -0.0000    0.0000 P   0  0  0  0  0  0  0  0  0  0  0  0
   -1.5000    0.0000    0.0000 C   0  0  0  0  0  0  0  0  0  0  0  0
   -2.2500    1.2990    0.0000 C   0  0  0  0  0  0  0  0  0  0  0  0
   -3.7500    1.2990    0.0000 C   0  0  0  0  0  0  0  0  0  0  0  0
   -4.5000    2.5981    0.0000 C   0  0  0  0  0  0  0  0  0  0  0  0
   -4.5000    0.0000    0.0000 C   0  0  0  0  0  0  0  0  0  0  0  0
   -3.7500   -1.2990    0.0000 C   0  0  0  0  0  0  0  0  0  0  0  0
   -2.2500   -1.2990    0.0000 C   0  0  0  0  0  0  0  0  0  0  0  0
    0.7500   -1.2990    0.0000 C   0  0  0  0  0  0  0  0  0  0  0  0
   -0.0000   -2.5981    0.0000 C   0  0  0  0  0  0  0  0  0  0  0  0
    0.7500   -3.8971    0.0000 C   0  0  0  0  0  0  0  0  0  0  0  0
   -0.0000   -5.1962    0.0000 C   0  0  0  0  0  0  0  0  0  0  0  0
    2.2500   -3.8971    0.0000 C   0  0  0  0  0  0  0  0  0  0  0  0
    3.0000   -2.5981    0.0000 C   0  0  0  0  0  0  0  0  0  0  0  0
    2.2500   -1.2990    0.0000 C   0  0  0  0  0  0  0  0  0  0  0  0
  1  2  1  0
  2  3  2  0
  3  4  1  0
  4  5  2  0
  5  6  1  0
  6  7  2  0
  4  8  1  0
  8  9  1  0
  9 10  2  0
 10 11  1  0
 11 12  1  0
 11 13  2  0
 13 14  1  0
 14 15  2  0
  8 16  1  0
 16 17  2  0
 17 18  1  0
 18 19  1  0
 18 20  2  0
 20 21  1  0
 21 22  2  0
  7  2  1  0
 15  9  1  0
 22 16  1  0
M  END
>  <linear_selectivity>  (106) 
27

>  <denticity>  (106) 
1

>  <ligand_class>  (106) 
phosphine

$$$$
P(m-Tol)3_100C_dioxane
     RDKit          2D

 22 24  0  0  0  0  0  0  0  0999 V2000
    4.5000    2.5981    0.0000 C   0  0  0  0  0  0  0  0  0  0  0  0
    3.0000    2.5981    0.0000 C   0  0  0  0  0  0  0  0  0  0  0  0
    2.2500    1.2990    0.0000 C   0  0  0  0  0  0  0  0  0  0  0  0
    0.7500    1.2990    0.0000 C   0  0  0  0  0  0  0  0  0  0  0  0
    0.0000    2.5981    0.0000 C   0  0  0  0  0  0  0  0  0  0  0  0
    0.7500    3.8971    0.0000 C   0  0  0  0  0  0  0  0  0  0  0  0
    2.2500    3.8971    0.0000 C   0  0  0  0  0  0  0  0  0  0  0  0
    0.0000   -0.0000    0.0000 P   0  0  0  0  0  0  0  0  0  0  0  0
   -1.5000    0.0000    0.0000 C   0  0  0  0  0  0  0  0  0  0  0  0
   -2.2500    1.2990    0.0000 C   0  0  0  0  0  0  0  0  0  0  0  0
   -3.7500    1.2990    0.0000 C   0  0  0  0  0  0  0  0  0  0  0  0
   -4.5000    2.5981    0.0000 C   0  0  0  0  0  0  0  0  0  0  0  0
   -4.5000    0.0000    0.0000 C   0  0  0  0  0  0  0  0  0  0  0  0
   -3.7500   -1.2990    0.0000 C   0  0  0  0  0  0  0  0  0  0  0  0
   -2.2500   -1.2990    0.0000 C   0  0  0  0  0  0  0  0  0  0  0  0
    0.7500   -1.2990    0.0000 C   0  0  0  0  0  0  0  0  0  0  0  0
   -0.0000   -2.5981    0.0000 C   0  0  0  0  0  0  0  0  0  0  0  0
    0.7500   -3.8971    0.0000 C   0  0  0  0  0  0  0  0  0  0  0  0
   -0.0000   -5.1962    0.0000 C   0  0  0  0  0  0  0  0  0  0  0  0
    2.2500   -3.8971    0.0000 C   0  0  0  0  0  0  0  0  0  0  0  0
    3.0000   -2.5981    0.0000 C   0  0  0  0  0  0  0  0  0  0  0  0
    2.2500   -1.2990    0.0000 C   0  0  0  0  0  0  0  0  0  0  0  0
  1  2  1  0
  2  3  2  0
  3  4  1  0
  4  5  2  0
  5  6  1  0
  6  7  2  0
  4  8  1  0
  8  9  1  0
  9 10  2  0
 10 11  1  0
 11 12  1  0
 11 13  2  0
 13 14  1  0
 14 15  2  0
  8 16  1  0
 16 17  2  0
 17 18  1  0
 18 19  1  0
 18 20  2  0
 20 21  1  0
 21 22  2  0
  7  2  1  0
 15  9  1  0
 22 16  1  0
M  END
>  <linear_selectivity>  (107) 
28

>  <denticity>  (107) 
1

>  <ligand_class>  (107) 
phosphine

$$$$
P(m-Tol)3_100C_hexane
     RDKit          2D

 22 24  0  0  0  0  0  0  0  0999 V2000
    4.5000    2.5981    0.0000 C   0  0  0  0  0  0  0  0  0  0  0  0
    3.0000    2.5981    0.0000 C   0  0  0  0  0  0  0  0  0  0  0  0
    2.2500    1.2990    0.0000 C   0  0  0  0  0  0  0  0  0  0  0  0
    0.7500    1.2990    0.0000 C   0  0  0  0  0  0  0  0  0  0  0  0
    0.0000    2.5981    0.0000 C   0  0  0  0  0  0  0  0  0  0  0  0
    0.7500    3.8971    0.0000 C   0  0  0  0  0  0  0  0  0  0  0  0
    2.2500    3.8971    0.0000 C   0  0  0  0  0  0  0  0  0  0  0  0
    0.0000   -0.0000    0.0000 P   0  0  0  0  0  0  0  0  0  0  0  0
   -1.5000    0.0000    0.0000 C   0  0  0  0  0  0  0  0  0  0  0  0
   -2.2500    1.2990    0.0000 C   0  0  0  0  0  0  0  0  0  0  0  0
   -3.7500    1.2990    0.0000 C   0  0  0  0  0  0  0  0  0  0  0  0
   -4.5000    2.5981    0.0000 C   0  0  0  0  0  0  0  0  0  0  0  0
   -4.5000    0.0000    0.0000 C   0  0  0  0  0  0  0  0  0  0  0  0
   -3.7500   -1.2990    0.0000 C   0  0  0  0  0  0  0  0  0  0  0  0
   -2.2500   -1.2990    0.0000 C   0  0  0  0  0  0  0  0  0  0  0  0
    0.7500   -1.2990    0.0000 C   0  0  0  0  0  0  0  0  0  0  0  0
   -0.0000   -2.5981    0.0000 C   0  0  0  0  0  0  0  0  0  0  0  0
    0.7500   -3.8971    0.0000 C   0  0  0  0  0  0  0  0  0  0  0  0
   -0.0000   -5.1962    0.0000 C   0  0  0  0  0  0  0  0  0  0  0  0
    2.2500   -3.8971    0.0000 C   0  0  0  0  0  0  0  0  0  0  0  0
    3.0000   -2.5981    0.0000 C   0  0  0  0  0  0  0  0  0  0  0  0
    2.2500   -1.2990    0.0000 C   0  0  0  0  0  0  0  0  0  0  0  0
  1  2  1  0
  2  3  2  0
  3  4  1  0
  4  5  2  0
  5  6  1  0
  6  7  2  0
  4  8  1  0
  8  9  1  0
  9 10  2  0
 10 11  1  0
 11 12  1  0
 11 13  2  0
 13 14  1  0
 14 15  2  0
  8 16  1  0
 16 17  2  0
 17 18  1  0
 18 19  1  0
 18 20  2  0
 20 21  1  0
 21 22  2  0
  7  2  1  0
 15  9  1  0
 22 16  1  0
M  END
>  <linear_selectivity>  (108) 
30

>  <denticity>  (108) 
1

>  <ligand_class>  (108) 
phosphine

$$$$
P(m-Tol)3_100C_xylene
     RDKit          2D

 22 24  0  0  0  0  0  0  0  0999 V2000
    4.5000    2.5981    0.0000 C   0  0  0  0  0  0  0  0  0  0  0  0
    3.0000    2.5981    0.0000 C   0  0  0  0  0  0  0  0  0  0  0  0
    2.2500    1.2990    0.0000 C   0  0  0  0  0  0  0  0  0  0  0  0
    0.7500    1.2990    0.0000 C   0  0  0  0  0  0  0  0  0  0  0  0
    0.0000    2.5981    0.0000 C   0  0  0  0  0  0  0  0  0  0  0  0
    0.7500    3.8971    0.0000 C   0  0  0  0  0  0  0  0  0  0  0  0
    2.2500    3.8971    0.0000 C   0  0  0  0  0  0  0  0  0  0  0  0
    0.0000   -0.0000    0.0000 P   0  0  0  0  0  0  0  0  0  0  0  0
   -1.5000    0.0000    0.0000 C   0  0  0  0  0  0  0  0  0  0  0  0
   -2.2500    1.2990    0.0000 C   0  0  0  0  0  0  0  0  0  0  0  0
   -3.7500    1.2990    0.0000 C   0  0  0  0  0  0  0  0  0  0  0  0
   -4.5000    2.5981    0.0000 C   0  0  0  0  0  0  0  0  0  0  0  0
   -4.5000    0.0000    0.0000 C   0  0  0  0  0  0  0  0  0  0  0  0
   -3.7500   -1.2990    0.0000 C   0  0  0  0  0  0  0  0  0  0  0  0
   -2.2500   -1.2990    0.0000 C   0  0  0  0  0  0  0  0  0  0  0  0
    0.7500   -1.2990    0.0000 C   0  0  0  0  0  0  0  0  0  0  0  0
   -0.0000   -2.5981    0.0000 C   0  0  0  0  0  0  0  0  0  0  0  0
    0.7500   -3.8971    0.0000 C   0  0  0  0  0  0  0  0  0  0  0  0
   -0.0000   -5.1962    0.0000 C   0  0  0  0  0  0  0  0  0  0  0  0
    2.2500   -3.8971    0.0000 C   0  0  0  0  0  0  0  0  0  0  0  0
    3.0000   -2.5981    0.0000 C   0  0  0  0  0  0  0  0  0  0  0  0
    2.2500   -1.2990    0.0000 C   0  0  0  0  0  0  0  0  0  0  0  0
  1  2  1  0
  2  3  2  0
  3  4  1  0
  4  5  2  0
  5  6  1  0
  6  7  2  0
  4  8  1  0
  8  9  1  0
  9 10  2  0
 10 11  1  0
 11 12  1  0
 11 13  2  0
 13 14  1  0
 14 15  2  0
  8 16  1  0
 16 17  2  0
 17 18  1  0
 18 19  1  0
 18 20  2  0
 20 21  1  0
 21 22  2  0
  7  2  1  0
 15  9  1  0
 22 16  1  0
M  END
>  <linear_selectivity>  (109) 
28

>  <denticity>  (109) 
1

>  <ligand_class>  (109) 
phosphine

$$$$
P(m-Tol)3_110C_THF
     RDKit          2D

 22 24  0  0  0  0  0  0  0  0999 V2000
    4.5000    2.5981    0.0000 C   0  0  0  0  0  0  0  0  0  0  0  0
    3.0000    2.5981    0.0000 C   0  0  0  0  0  0  0  0  0  0  0  0
    2.2500    1.2990    0.0000 C   0  0  0  0  0  0  0  0  0  0  0  0
    0.7500    1.2990    0.0000 C   0  0  0  0  0  0  0  0  0  0  0  0
    0.0000    2.5981    0.0000 C   0  0  0  0  0  0  0  0  0  0  0  0
    0.7500    3.8971    0.0000 C   0  0  0  0  0  0  0  0  0  0  0  0
    2.2500    3.8971    0.0000 C   0  0  0  0  0  0  0  0  0  0  0  0
    0.0000   -0.0000    0.0000 P   0  0  0  0  0  0  0  0  0  0  0  0
   -1.5000    0.0000    0.0000 C   0  0  0  0  0  0  0  0  0  0  0  0
   -2.2500    1.2990    0.0000 C   0  0  0  0  0  0  0  0  0  0  0  0
   -3.7500    1.2990    0.0000 C   0  0  0  0  0  0  0  0  0  0  0  0
   -4.5000    2.5981    0.0000 C   0  0  0  0  0  0  0  0  0  0  0  0
   -4.5000    0.0000    0.0000 C   0  0  0  0  0  0  0  0  0  0  0  0
   -3.7500   -1.2990    0.0000 C   0  0  0  0  0  0  0  0  0  0  0  0
   -2.2500   -1.2990    0.0000 C   0  0  0  0  0  0  0  0  0  0  0  0
    0.7500   -1.2990    0.0000 C   0  0  0  0  0  0  0  0  0  0  0  0
   -0.0000   -2.5981    0.0000 C   0  0  0  0  0  0  0  0  0  0  0  0
    0.7500   -3.8971    0.0000 C   0  0  0  0  0  0  0  0  0  0  0  0
   -0.0000   -5.1962    0.0000 C   0  0  0  0  0  0  0  0  0  0  0  0
    2.2500   -3.8971    0.0000 C   0  0  0  0  0  0  0  0  0  0  0  0
    3.0000   -2.5981    0.0000 C   0  0  0  0  0  0  0  0  0  0  0  0
    2.2500   -1.2990    0.0000 C   0  0  0  0  0  0  0  0  0  0  0  0
  1  2  1  0
  2  3  2  0
  3  4  1  0
  4  5  2  0
  5  6  1  0
  6  7  2  0
  4  8  1  0
  8  9  1  0
  9 10  2  0
 10 11  1  0
 11 12  1  0
 11 13  2  0
 13 14  1  0
 14 15  2  0
  8 16  1  0
 16 17  2  0
 17 18  1  0
 18 19  1  0
 18 20  2  0
 20 21  1  0
 21 22  2  0
  7  2  1  0
 15  9  1  0
 22 16  1  0
M  END
>  <linear_selectivity>  (110) 
24

>  <denticity>  (110) 
1

>  <ligand_class>  (110) 
phosphine

$$$$
P(m-Tol)3_110C_dioxane
     RDKit          2D

 22 24  0  0  0  0  0  0  0  0999 V2000
    4.5000    2.5981    0.0000 C   0  0  0  0  0  0  0  0  0  0  0  0
    3.0000    2.5981    0.0000 C   0  0  0  0  0  0  0  0  0  0  0  0
    2.2500    1.2990    0.0000 C   0  0  0  0  0  0  0  0  0  0  0  0
    0.7500    1.2990    0.0000 C   0  0  0  0  0  0  0  0  0  0  0  0
    0.0000    2.5981    0.0000 C   0  0  0  0  0  0  0  0  0  0  0  0
    0.7500    3.8971    0.0000 C   0  0  0  0  0  0  0  0  0  0  0  0
    2.2500    3.8971    0.0000 C   0  0  0  0  0  0  0  0  0  0  0  0
    0.0000   -0.0000    0.0000 P   0  0  0  0  0  0  0  0  0  0  0  0
   -1.5000    0.0000    0.0000 C   0  0  0  0  0  0  0  0  0  0  0  0
   -2.2500    1.2990    0.0000 C   0  0  0  0  0  0  0  0  0  0  0  0
   -3.7500    1.2990    0.0000 C   0  0  0  0  0  0  0  0  0  0  0  0
   -4.5000    2.5981    0.0000 C   0  0  0  0  0  0  0  0  0  0  0  0
   -4.5000    0.0000    0.0000 C   0  0  0  0  0  0  0  0  0  0  0  0
   -3.7500   -1.2990    0.0000 C   0  0  0  0  0  0  0  0  0  0  0  0
   -2.2500   -1.2990    0.0000 C   0  0  0  0  0  0  0  0  0  0  0  0
    0.7500   -1.2990    0.0000 C   0  0  0  0  0  0  0  0  0  0  0  0
   -0.0000   -2.5981    0.0000 C   0  0  0  0  0  0  0  0  0  0  0  0
    0.7500   -3.8971    0.0000 C   0  0  0  0  0  0  0  0  0  0  0  0
   -0.0000   -5.1962    0.0000 C   0  0  0  0  0  0  0  0  0  0  0  0
    2.2500   -3.8971    0.0000 C   0  0  0  0  0  0  0  0  0  0  0  0
    3.0000   -2.5981    0.0000 C   0  0  0  0  0  0  0  0  0  0  0  0
    2.2500   -1.2990    0.0000 C   0  0  0  0  0  0  0  0  0  0  0  0
  1  2  1  0
  2  3  2  0
  3  4  1  0
  4  5  2  0
  5  6  1  0
  6  7  2  0
  4  8  1  0
  8  9  1  0
  9 10  2  0
 10 11  1  0
 11 12  1  0
 11 13  2  0
 13 14  1  0
 14 15  2  0
  8 16  1  0
 16 17  2  0
 17 18  1  0
 18 19  1  0
 18 20  2  0
 20 21  1  0
 21 22  2  0
  7  2  1  0
 15  9  1  0
 22 16  1  0
M  END
>  <linear_selectivity>  (111) 
31

>  <denticity>  (111) 
1

>  <ligand_class>  (111) 
phosphine

$$$$
P(m-Tol)3_110C_benzene
     RDKit          2D

 22 24  0  0  0  0  0  0  0  0999 V2000
    4.5000    2.5981    0.0000 C   0  0  0  0  0  0  0  0  0  0  0  0
    3.0000    2.5981    0.0000 C   0  0  0  0  0  0  0  0  0  0  0  0
    2.2500    1.2990    0.0000 C   0  0  0  0  0  0  0  0  0  0  0  0
    0.7500    1.2990    0.0000 C   0  0  0  0  0  0  0  0  0  0  0  0
    0.0000    2.5981    0.0000 C   0  0  0  0  0  0  0  0  0  0  0  0
    0.7500    3.8971    0.0000 C   0  0  0  0  0  0  0  0  0  0  0  0
    2.2500    3.8971    0.0000 C   0  0  0  0  0  0  0  0  0  0  0  0
    0.0000   -0.0000    0.0000 P   0  0  0  0  0  0  0  0  0  0  0  0
   -1.5000    0.0000    0.0000 C   0  0  0  0  0  0  0  0  0  0  0  0
   -2.2500    1.2990    0.0000 C   0  0  0  0  0  0  0  0  0  0  0  0
   -3.7500    1.2990    0.0000 C   0  0  0  0  0  0  0  0  0  0  0  0
   -4.5000    2.5981    0.0000 C   0  0  0  0  0  0  0  0  0  0  0  0
   -4.5000    0.0000    0.0000 C   0  0  0  0  0  0  0  0  0  0  0  0
   -3.7500   -1.2990    0.0000 C   0  0  0  0  0  0  0  0  0  0  0  0
   -2.2500   -1.2990    0.0000 C   0  0  0  0  0  0  0  0  0  0  0  0
    0.7500   -1.2990    0.0000 C   0  0  0  0  0  0  0  0  0  0  0  0
   -0.0000   -2.5981    0.0000 C   0  0  0  0  0  0  0  0  0  0  0  0
    0.7500   -3.8971    0.0000 C   0  0  0  0  0  0  0  0  0  0  0  0
   -0.0000   -5.1962    0.0000 C   0  0  0  0  0  0  0  0  0  0  0  0
    2.2500   -3.8971    0.0000 C   0  0  0  0  0  0  0  0  0  0  0  0
    3.0000   -2.5981    0.0000 C   0  0  0  0  0  0  0  0  0  0  0  0
    2.2500   -1.2990    0.0000 C   0  0  0  0  0  0  0  0  0  0  0  0
  1  2  1  0
  2  3  2  0
  3  4  1  0
  4  5  2  0
  5  6  1  0
  6  7  2  0
  4  8  1  0
  8  9  1  0
  9 10  2  0
 10 11  1  0
 11 12  1  0
 11 13  2  0
 13 14  1  0
 14 15  2  0
  8 16  1  0
 16 17  2  0
 17 18  1  0
 18 19  1  0
 18 20  2  0
 20 21  1  0
 21 22  2  0
  7  2  1  0
 15  9  1  0
 22 16  1  0
M  END
>  <linear_selectivity>  (112) 
28

>  <denticity>  (112) 
1

>  <ligand_class>  (112) 
phosphine

$$$$
P(m-Tol)3_110C_xylene
     RDKit          2D

 22 24  0  0  0  0  0  0  0  0999 V2000
    4.5000    2.5981    0.0000 C   0  0  0  0  0  0  0  0  0  0  0  0
    3.0000    2.5981    0.0000 C   0  0  0  0  0  0  0  0  0  0  0  0
    2.2500    1.2990    0.0000 C   0  0  0  0  0  0  0  0  0  0  0  0
    0.7500    1.2990    0.0000 C   0  0  0  0  0  0  0  0  0  0  0  0
    0.0000    2.5981    0.0000 C   0  0  0  0  0  0  0  0  0  0  0  0
    0.7500    3.8971    0.0000 C   0  0  0  0  0  0  0  0  0  0  0  0
    2.2500    3.8971    0.0000 C   0  0  0  0  0  0  0  0  0  0  0  0
    0.0000   -0.0000    0.0000 P   0  0  0  0  0  0  0  0  0  0  0  0
   -1.5000    0.0000    0.0000 C   0  0  0  0  0  0  0  0  0  0  0  0
   -2.2500    1.2990    0.0000 C   0  0  0  0  0  0  0  0  0  0  0  0
   -3.7500    1.2990    0.0000 C   0  0  0  0  0  0  0  0  0  0  0  0
   -4.5000    2.5981    0.0000 C   0  0  0  0  0  0  0  0  0  0  0  0
   -4.5000    0.0000    0.0000 C   0  0  0  0  0  0  0  0  0  0  0  0
   -3.7500   -1.2990    0.0000 C   0  0  0  0  0  0  0  0  0  0  0  0
   -2.2500   -1.2990    0.0000 C   0  0  0  0  0  0  0  0  0  0  0  0
    0.7500   -1.2990    0.0000 C   0  0  0  0  0  0  0  0  0  0  0  0
   -0.0000   -2.5981    0.0000 C   0  0  0  0  0  0  0  0  0  0  0  0
    0.7500   -3.8971    0.0000 C   0  0  0  0  0  0  0  0  0  0  0  0
   -0.0000   -5.1962    0.0000 C   0  0  0  0  0  0  0  0  0  0  0  0
    2.2500   -3.8971    0.0000 C   0  0  0  0  0  0  0  0  0  0  0  0
    3.0000   -2.5981    0.0000 C   0  0  0  0  0  0  0  0  0  0  0  0
    2.2500   -1.2990    0.0000 C   0  0  0  0  0  0  0  0  0  0  0  0
  1  2  1  0
  2  3  2  0
  3  4  1  0
  4  5  2  0
  5  6  1  0
  6  7  2  0
  4  8  1  0
  8  9  1  0
  9 10  2  0
 10 11  1  0
 11 12  1  0
 11 13  2  0
 13 14  1  0
 14 15  2  0
  8 16  1  0
 16 17  2  0
 17 18  1  0
 18 19  1  0
 18 20  2  0
 20 21  1  0
 21 22  2  0
  7  2  1  0
 15  9  1  0
 22 16  1  0
M  END
>  <linear_selectivity>  (113) 
31

>  <denticity>  (113) 
1

>  <ligand_class>  (113) 
phosphine

$$$$
P(m-Tol)3_120C_toluene
     RDKit          2D

 22 24  0  0  0  0  0  0  0  0999 V2000
    4.5000    2.5981    0.0000 C   0  0  0  0  0  0  0  0  0  0  0  0
    3.0000    2.5981    0.0000 C   0  0  0  0  0  0  0  0  0  0  0  0
    2.2500    1.2990    0.0000 C   0  0  0  0  0  0  0  0  0  0  0  0
    0.7500    1.2990    0.0000 C   0  0  0  0  0  0  0  0  0  0  0  0
    0.0000    2.5981    0.0000 C   0  0  0  0  0  0  0  0  0  0  0  0
    0.7500    3.8971    0.0000 C   0  0  0  0  0  0  0  0  0  0  0  0
    2.2500    3.8971    0.0000 C   0  0  0  0  0  0  0  0  0  0  0  0
    0.0000   -0.0000    0.0000 P   0  0  0  0  0  0  0  0  0  0  0  0
   -1.5000    0.0000    0.0000 C   0  0  0  0  0  0  0  0  0  0  0  0
   -2.2500    1.2990    0.0000 C   0  0  0  0  0  0  0  0  0  0  0  0
   -3.7500    1.2990    0.0000 C   0  0  0  0  0  0  0  0  0  0  0  0
   -4.5000    2.5981    0.0000 C   0  0  0  0  0  0  0  0  0  0  0  0
   -4.5000    0.0000    0.0000 C   0  0  0  0  0  0  0  0  0  0  0  0
   -3.7500   -1.2990    0.0000 C   0  0  0  0  0  0  0  0  0  0  0  0
   -2.2500   -1.2990    0.0000 C   0  0  0  0  0  0  0  0  0  0  0  0
    0.7500   -1.2990    0.0000 C   0  0  0  0  0  0  0  0  0  0  0  0
   -0.0000   -2.5981    0.0000 C   0  0  0  0  0  0  0  0  0  0  0  0
    0.7500   -3.8971    0.0000 C   0  0  0  0  0  0  0  0  0  0  0  0
   -0.0000   -5.1962    0.0000 C   0  0  0  0  0  0  0  0  0  0  0  0
    2.2500   -3.8971    0.0000 C   0  0  0  0  0  0  0  0  0  0  0  0
    3.0000   -2.5981    0.0000 C   0  0  0  0  0  0  0  0  0  0  0  0
    2.2500   -1.2990    0.0000 C   0  0  0  0  0  0  0  0  0  0  0  0
  1  2  1  0
  2  3  2  0
  3  4  1  0
  4  5  2  0
  5  6  1  0
  6  7  2  0
  4  8  1  0
  8  9  1  0
  9 10  2  0
 10 11  1  0
 11 12  1  0
 11 13  2  0
 13 14  1  0
 14 15  2  0
  8 16  1  0
 16 17  2  0
 17 18  1  0
 18 19  1  0
 18 20  2  0
 20 21  1  0
 21 22  2  0
  7  2  1  0
 15  9  1  0
 22 16  1  0
M  END
>  <linear_selectivity>  (114) 
30

>  <denticity>  (114) 
1

>  <ligand_class>  (114) 
phosphine

$$$$
P(m-Tol)3_120C_THF
     RDKit          2D

 22 24  0  0  0  0  0  0  0  0999 V2000
    4.5000    2.5981    0.0000 C   0  0  0  0  0  0  0  0  0  0  0  0
    3.0000    2.5981    0.0000 C   0  0  0  0  0  0  0  0  0  0  0  0
    2.2500    1.2990    0.0000 C   0  0  0  0  0  0  0  0  0  0  0  0
    0.7500    1.2990    0.0000 C   0  0  0  0  0  0  0  0  0  0  0  0
    0.0000    2.5981    0.0000 C   0  0  0  0  0  0  0  0  0  0  0  0
    0.7500    3.8971    0.0000 C   0  0  0  0  0  0  0  0  0  0  0  0
    2.2500    3.8971    0.0000 C   0  0  0  0  0  0  0  0  0  0  0  0
    0.0000   -0.0000    0.0000 P   0  0  0  0  0  0  0  0  0  0  0  0
   -1.5000    0.0000    0.0000 C   0  0  0  0  0  0  0  0  0  0  0  0
   -2.2500    1.2990    0.0000 C   0  0  0  0  0  0  0  0  0  0  0  0
   -3.7500    1.2990    0.0000 C   0  0  0  0  0  0  0  0  0  0  0  0
   -4.5000    2.5981    0.0000 C   0  0  0  0  0  0  0  0  0  0  0  0
   -4.5000    0.0000    0.0000 C   0  0  0  0  0  0  0  0  0  0  0  0
   -3.7500   -1.2990    0.0000 C   0  0  0  0  0  0  0  0  0  0  0  0
   -2.2500   -1.2990    0.0000 C   0  0  0  0  0  0  0  0  0  0  0  0
    0.7500   -1.2990    0.0000 C   0  0  0  0  0  0  0  0  0  0  0  0
   -0.0000   -2.5981    0.0000 C   0  0  0  0  0  0  0  0  0  0  0  0
    0.7500   -3.8971    0.0000 C   0  0  0  0  0  0  0  0  0  0  0  0
   -0.0000   -5.1962    0.0000 C   0  0  0  0  0  0  0  0  0  0  0  0
    2.2500   -3.8971    0.0000 C   0  0  0  0  0  0  0  0  0  0  0  0
    3.0000   -2.5981    0.0000 C   0  0  0  0  0  0  0  0  0  0  0  0
    2.2500   -1.2990    0.0000 C   0  0  0  0  0  0  0  0  0  0  0  0
  1  2  1  0
  2  3  2  0
  3  4  1  0
  4  5  2  0
  5  6  1  0
  6  7  2  0
  4  8  1  0
  8  9  1  0
  9 10  2  0
 10 11  1  0
 11 12  1  0
 11 13  2  0
 13 14  1  0
 14 15  2  0
  8 16  1  0
 16 17  2  0
 17 18  1  0
 18 19  1  0
 18 20  2  0
 20 21  1  0
 21 22  2  0
  7  2  1  0
 15  9  1  0
 22 16  1  0
M  END
>  <linear_selectivity>  (115) 
26

>  <denticity>  (115) 
1

>  <ligand_class>  (115) 
phosphine

$$$$
P(m-Tol)3_120C_hexane
     RDKit          2D

 22 24  0  0  0  0  0  0  0  0999 V2000
    4.5000    2.5981    0.0000 C   0  0  0  0  0  0  0  0  0  0  0  0
    3.0000    2.5981    0.0000 C   0  0  0  0  0  0  0  0  0  0  0  0
    2.2500    1.2990    0.0000 C   0  0  0  0  0  0  0  0  0  0  0  0
    0.7500    1.2990    0.0000 C   0  0  0  0  0  0  0  0  0  0  0  0
    0.0000    2.5981    0.0000 C   0  0  0  0  0  0  0  0  0  0  0  0
    0.7500    3.8971    0.0000 C   0  0  0  0  0  0  0  0  0  0  0  0
    2.2500    3.8971    0.0000 C   0  0  0  0  0  0  0  0  0  0  0  0
    0.0000   -0.0000    0.0000 P   0  0  0  0  0  0  0  0  0  0  0  0
   -1.5000    0.0000    0.0000 C   0  0  0  0  0  0  0  0  0  0  0  0
   -2.2500    1.2990    0.0000 C   0  0  0  0  0  0  0  0  0  0  0  0
   -3.7500    1.2990    0.0000 C   0  0  0  0  0  0  0  0  0  0  0  0
   -4.5000    2.5981    0.0000 C   0  0  0  0  0  0  0  0  0  0  0  0
   -4.5000    0.0000    0.0000 C   0  0  0  0  0  0  0  0  0  0  0  0
   -3.7500   -1.2990    0.0000 C   0  0  0  0  0  0  0  0  0  0  0  0
   -2.2500   -1.2990    0.0000 C   0  0  0  0  0  0  0  0  0  0  0  0
    0.7500   -1.2990    0.0000 C   0  0  0  0  0  0  0  0  0  0  0  0
   -0.0000   -2.5981    0.0000 C   0  0  0  0  0  0  0  0  0  0  0  0
    0.7500   -3.8971    0.0000 C   0  0  0  0  0  0  0  0  0  0  0  0
   -0.0000   -5.1962    0.0000 C   0  0  0  0  0  0  0  0  0  0  0  0
    2.2500   -3.8971    0.0000 C   0  0  0  0  0  0  0  0  0  0  0  0
    3.0000   -2.5981    0.0000 C   0  0  0  0  0  0  0  0  0  0  0  0
    2.2500   -1.2990    0.0000 C   0  0  0  0  0  0  0  0  0  0  0  0
  1  2  1  0
  2  3  2  0
  3  4  1  0
  4  5  2  0
  5  6  1  0
  6  7  2  0
  4  8  1  0
  8  9  1  0
  9 10  2  0
 10 11  1  0
 11 12  1  0
 11 13  2  0
 13 14  1  0
 14 15  2  0
  8 16  1  0
 16 17  2  0
 17 18  1  0
 18 19  1  0
 18 20  2  0
 20 21  1  0
 21 22  2  0
  7  2  1  0
 15  9  1  0
 22 16  1  0
M  END
>  <linear_selectivity>  (116) 
28

>  <denticity>  (116) 
1

>  <ligand_class>  (116) 
phosphine

$$$$
P(m-Tol)3_120C_benzene
     RDKit          2D

 22 24  0  0  0  0  0  0  0  0999 V2000
    4.5000    2.5981    0.0000 C   0  0  0  0  0  0  0  0  0  0  0  0
    3.0000    2.5981    0.0000 C   0  0  0  0  0  0  0  0  0  0  0  0
    2.2500    1.2990    0.0000 C   0  0  0  0  0  0  0  0  0  0  0  0
    0.7500    1.2990    0.0000 C   0  0  0  0  0  0  0  0  0  0  0  0
    0.0000    2.5981    0.0000 C   0  0  0  0  0  0  0  0  0  0  0  0
    0.7500    3.8971    0.0000 C   0  0  0  0  0  0  0  0  0  0  0  0
    2.2500    3.8971    0.0000 C   0  0  0  0  0  0  0  0  0  0  0  0
    0.0000   -0.0000    0.0000 P   0  0  0  0  0  0  0  0  0  0  0  0
   -1.5000    0.0000    0.0000 C   0  0  0  0  0  0  0  0  0  0  0  0
   -2.2500    1.2990    0.0000 C   0  0  0  0  0  0  0  0  0  0  0  0
   -3.7500    1.2990    0.0000 C   0  0  0  0  0  0  0  0  0  0  0  0
   -4.5000    2.5981    0.0000 C   0  0  0  0  0  0  0  0  0  0  0  0
   -4.5000    0.0000    0.0000 C   0  0  0  0  0  0  0  0  0  0  0  0
   -3.7500   -1.2990    0.0000 C   0  0  0  0  0  0  0  0  0  0  0  0
   -2.2500   -1.2990    0.0000 C   0  0  0  0  0  0  0  0  0  0  0  0
    0.7500   -1.2990    0.0000 C   0  0  0  0  0  0  0  0  0  0  0  0
   -0.0000   -2.5981    0.0000 C   0  0  0  0  0  0  0  0  0  0  0  0
    0.7500   -3.8971    0.0000 C   0  0  0  0  0  0  0  0  0  0  0  0
   -0.0000   -5.1962    0.0000 C   0  0  0  0  0  0  0  0  0  0  0  0
    2.2500   -3.8971    0.0000 C   0  0  0  0  0  0  0  0  0  0  0  0
    3.0000   -2.5981    0.0000 C   0  0  0  0  0  0  0  0  0  0  0  0
    2.2500   -1.2990    0.0000 C   0  0  0  0  0  0  0  0  0  0  0  0
  1  2  1  0
  2  3  2  0
  3  4  1  0
  4  5  2  0
  5  6  1  0
  6  7  2  0
  4  8  1  0
  8  9  1  0
  9 10  2  0
 10 11  1  0
 11 12  1  0
 11 13  2  0
 13 14  1  0
 14 15  2  0
  8 16  1  0
 16 17  2  0
 17 18  1  0
 18 19  1  0
 18 20  2  0
 20 21  1  0
 21 22  2  0
  7  2  1  0
 15  9  1  0
 22 16  1  0
M  END
>  <linear_selectivity>  (117) 
26

>  <denticity>  (117) 
1

>  <ligand_class>  (117) 
phosphine

$$$$
P(m-Tol)3_120C_xylene
     RDKit          2D

 22 24  0  0  0  0  0  0  0  0999 V2000
    4.5000    2.5981    0.0000 C   0  0  0  0  0  0  0  0  0  0  0  0
    3.0000    2.5981    0.0000 C   0  0  0  0  0  0  0  0  0  0  0  0
    2.2500    1.2990    0.0000 C   0  0  0  0  0  0  0  0  0  0  0  0
    0.7500    1.2990    0.0000 C   0  0  0  0  0  0  0  0  0  0  0  0
    0.0000    2.5981    0.0000 C   0  0  0  0  0  0  0  0  0  0  0  0
    0.7500    3.8971    0.0000 C   0  0  0  0  0  0  0  0  0  0  0  0
    2.2500    3.8971    0.0000 C   0  0  0  0  0  0  0  0  0  0  0  0
    0.0000   -0.0000    0.0000 P   0  0  0  0  0  0  0  0  0  0  0  0
   -1.5000    0.0000    0.0000 C   0  0  0  0  0  0  0  0  0  0  0  0
   -2.2500    1.2990    0.0000 C   0  0  0  0  0  0  0  0  0  0  0  0
   -3.7500    1.2990    0.0000 C   0  0  0  0  0  0  0  0  0  0  0  0
   -4.5000    2.5981    0.0000 C   0  0  0  0  0  0  0  0  0  0  0  0
   -4.5000    0.0000    0.0000 C   0  0  0  0  0  0  0  0  0  0  0  0
   -3.7500   -1.2990    0.0000 C   0  0  0  0  0  0  0  0  0  0  0  0
   -2.2500   -1.2990    0.0000 C   0  0  0  0  0  0  0  0  0  0  0  0
    0.7500   -1.2990    0.0000 C   0  0  0  0  0  0  0  0  0  0  0  0
   -0.0000   -2.5981    0.0000 C   0  0  0  0  0  0  0  0  0  0  0  0
    0.7500   -3.8971    0.0000 C   0  0  0  0  0  0  0  0  0  0  0  0
   -0.0000   -5.1962    0.0000 C   0  0  0  0  0  0  0  0  0  0  0  0
    2.2500   -3.8971    0.0000 C   0  0  0  0  0  0  0  0  0  0  0  0
    3.0000   -2.5981    0.0000 C   0  0  0  0  0  0  0  0  0  0  0  0
    2.2500   -1.2990    0.0000 C   0  0  0  0  0  0  0  0  0  0  0  0
  1  2  1  0
  2  3  2  0
  3  4  1  0
  4  5  2  0
  5  6  1  0
  6  7  2  0
  4  8  1  0
  8  9  1  0
  9 10  2  0
 10 11  1  0
 11 12  1  0
 11 13  2  0
 13 14  1  0
 14 15  2  0
  8 16  1  0
 16 17  2  0
 17 18  1  0
 18 19  1  0
 18 20  2  0
 20 21  1  0
 21 22  2  0
  7  2  1  0
 15  9  1  0
 22 16  1  0
M  END
>  <linear_selectivity>  (118) 
29

>  <denticity>  (118) 
1

>  <ligand_class>  (118) 
phosphine

$$$$
P(m-Tol)3_130C_toluene
     RDKit          2D

 22 24  0  0  0  0  0  0  0  0999 V2000
    4.5000    2.5981    0.0000 C   0  0  0  0  0  0  0  0  0  0  0  0
    3.0000    2.5981    0.0000 C   0  0  0  0  0  0  0  0  0  0  0  0
    2.2500    1.2990    0.0000 C   0  0  0  0  0  0  0  0  0  0  0  0
    0.7500    1.2990    0.0000 C   0  0  0  0  0  0  0  0  0  0  0  0
    0.0000    2.5981    0.0000 C   0  0  0  0  0  0  0  0  0  0  0  0
    0.7500    3.8971    0.0000 C   0  0  0  0  0  0  0  0  0  0  0  0
    2.2500    3.8971    0.0000 C   0  0  0  0  0  0  0  0  0  0  0  0
    0.0000   -0.0000    0.0000 P   0  0  0  0  0  0  0  0  0  0  0  0
   -1.5000    0.0000    0.0000 C   0  0  0  0  0  0  0  0  0  0  0  0
   -2.2500    1.2990    0.0000 C   0  0  0  0  0  0  0  0  0  0  0  0
   -3.7500    1.2990    0.0000 C   0  0  0  0  0  0  0  0  0  0  0  0
   -4.5000    2.5981    0.0000 C   0  0  0  0  0  0  0  0  0  0  0  0
   -4.5000    0.0000    0.0000 C   0  0  0  0  0  0  0  0  0  0  0  0
   -3.7500   -1.2990    0.0000 C   0  0  0  0  0  0  0  0  0  0  0  0
   -2.2500   -1.2990    0.0000 C   0  0  0  0  0  0  0  0  0  0  0  0
    0.7500   -1.2990    0.0000 C   0  0  0  0  0  0  0  0  0  0  0  0
   -0.0000   -2.5981    0.0000 C   0  0  0  0  0  0  0  0  0  0  0  0
    0.7500   -3.8971    0.0000 C   0  0  0  0  0  0  0  0  0  0  0  0
   -0.0000   -5.1962    0.0000 C   0  0  0  0  0  0  0  0  0  0  0  0
    2.2500   -3.8971    0.0000 C   0  0  0  0  0  0  0  0  0  0  0  0
    3.0000   -2.5981    0.0000 C   0  0  0  0  0  0  0  0  0  0  0  0
    2.2500   -1.2990    0.0000 C   0  0  0  0  0  0  0  0  0  0  0  0
  1  2  1  0
  2  3  2  0
  3  4  1  0
  4  5  2  0
  5  6  1  0
  6  7  2  0
  4  8  1  0
  8  9  1  0
  9 10  2  0
 10 11  1  0
 11 12  1  0
 11 13  2  0
 13 14  1  0
 14 15  2  0
  8 16  1  0
 16 17  2  0
 17 18  1  0
 18 19  1  0
 18 20  2  0
 20 21  1  0
 21 22  2  0
  7  2  1  0
 15  9  1  0
 22 16  1  0
M  END
>  <linear_selectivity>  (119) 
24

>  <denticity>  (119) 
1

>  <ligand_class>  (119) 
phosphine

$$$$
P(m-Tol)3_130C_dioxane
     RDKit          2D

 22 24  0  0  0  0  0  0  0  0999 V2000
    4.5000    2.5981    0.0000 C   0  0  0  0  0  0  0  0  0  0  0  0
    3.0000    2.5981    0.0000 C   0  0  0  0  0  0  0  0  0  0  0  0
    2.2500    1.2990    0.0000 C   0  0  0  0  0  0  0  0  0  0  0  0
    0.7500    1.2990    0.0000 C   0  0  0  0  0  0  0  0  0  0  0  0
    0.0000    2.5981    0.0000 C   0  0  0  0  0  0  0  0  0  0  0  0
    0.7500    3.8971    0.0000 C   0  0  0  0  0  0  0  0  0  0  0  0
    2.2500    3.8971    0.0000 C   0  0  0  0  0  0  0  0  0  0  0  0
    0.0000   -0.0000    0.0000 P   0  0  0  0  0  0  0  0  0  0  0  0
   -1.5000    0.0000    0.0000 C   0  0  0  0  0  0  0  0  0  0  0  0
   -2.2500    1.2990    0.0000 C   0  0  0  0  0  0  0  0  0  0  0  0
   -3.7500    1.2990    0.0000 C   0  0  0  0  0  0  0  0  0  0  0  0
   -4.5000    2.5981    0.0000 C   0  0  0  0  0  0  0  0  0  0  0  0
   -4.5000    0.0000    0.0000 C   0  0  0  0  0  0  0  0  0  0  0  0
   -3.7500   -1.2990    0.0000 C   0  0  0  0  0  0  0  0  0  0  0  0
   -2.2500   -1.2990    0.0000 C   0  0  0  0  0  0  0  0  0  0  0  0
    0.7500   -1.2990    0.0000 C   0  0  0  0  0  0  0  0  0  0  0  0
   -0.0000   -2.5981    0.0000 C   0  0  0  0  0  0  0  0  0  0  0  0
    0.7500   -3.8971    0.0000 C   0  0  0  0  0  0  0  0  0  0  0  0
   -0.0000   -5.1962    0.0000 C   0  0  0  0  0  0  0  0  0  0  0  0
    2.2500   -3.8971    0.0000 C   0  0  0  0  0  0  0  0  0  0  0  0
    3.0000   -2.5981    0.0000 C   0  0  0  0  0  0  0  0  0  0  0  0
    2.2500   -1.2990    0.0000 C   0  0  0  0  0  0  0  0  0  0  0  0
  1  2  1  0
  2  3  2  0
  3  4  1  0
  4  5  2  0
  5  6  1  0
  6  7  2  0
  4  8  1  0
  8  9  1  0
  9 10  2  0
 10 11  1  0
 11 12  1  0
 11 13  2  0
 13 14  1  0
 14 15  2  0
  8 16  1  0
 16 17  2  0
 17 18  1  0
 18 19  1  0
 18 20  2  0
 20 21  1  0
 21 22  2  0
  7  2  1  0
 15  9  1  0
 22 16  1  0
M  END
>  <linear_selectivity>  (120) 
26

>  <denticity>  (120) 
1

>  <ligand_class>  (120) 
phosphine

$$$$
P(m-Tol)3_130C_hexane
     RDKit          2D

 22 24  0  0  0  0  0  0  0  0999 V2000
    4.5000    2.5981    0.0000 C   0  0  0  0  0  0  0  0  0  0  0  0
    3.0000    2.5981    0.0000 C   0  0  0  0  0  0  0  0  0  0  0  0
    2.2500    1.2990    0.0000 C   0  0  0  0  0  0  0  0  0  0  0  0
    0.7500    1.2990    0.0000 C   0  0  0  0  0  0  0  0  0  0  0  0
    0.0000    2.5981    0.0000 C   0  0  0  0  0  0  0  0  0  0  0  0
    0.7500    3.8971    0.0000 C   0  0  0  0  0  0  0  0  0  0  0  0
    2.2500    3.8971    0.0000 C   0  0  0  0  0  0  0  0  0  0  0  0
    0.0000   -0.0000    0.0000 P   0  0  0  0  0  0  0  0  0  0  0  0
   -1.5000    0.0000    0.0000 C   0  0  0  0  0  0  0  0  0  0  0  0
   -2.2500    1.2990    0.0000 C   0  0  0  0  0  0  0  0  0  0  0  0
   -3.7500    1.2990    0.0000 C   0  0  0  0  0  0  0  0  0  0  0  0
   -4.5000    2.5981    0.0000 C   0  0  0  0  0  0  0  0  0  0  0  0
   -4.5000    0.0000    0.0000 C   0  0  0  0  0  0  0  0  0  0  0  0
   -3.7500   -1.2990    0.0000 C   0  0  0  0  0  0  0  0  0  0  0  0
   -2.2500   -1.2990    0.0000 C   0  0  0  0  0  0  0  0  0  0  0  0
    0.7500   -1.2990    0.0000 C   0  0  0  0  0  0  0  0  0  0  0  0
   -0.0000   -2.5981    0.0000 C   0  0  0  0  0  0  0  0  0  0  0  0
    0.7500   -3.8971    0.0000 C   0  0  0  0  0  0  0  0  0  0  0  0
   -0.0000   -5.1962    0.0000 C   0  0  0  0  0  0  0  0  0  0  0  0
    2.2500   -3.8971    0.0000 C   0  0  0  0  0  0  0  0  0  0  0  0
    3.0000   -2.5981    0.0000 C   0  0  0  0  0  0  0  0  0  0  0  0
    2.2500   -1.2990    0.0000 C   0  0  0  0  0  0  0  0  0  0  0  0
  1  2  1  0
  2  3  2  0
  3  4  1  0
  4  5  2  0
  5  6  1  0
  6  7  2  0
  4  8  1  0
  8  9  1  0
  9 10  2  0
 10 11  1  0
 11 12  1  0
 11 13  2  0
 13 14  1  0
 14 15  2  0
  8 16  1  0
 16 17  2  0
 17 18  1  0
 18 19  1  0
 18 20  2  0
 20 21  1  0
 21 22  2  0
  7  2  1  0
 15  9  1  0
 22 16  1  0
M  END
>  <linear_selectivity>  (121) 
28

>  <denticity>  (121) 
1

>  <ligand_class>  (121) 
phosphine

$$$$
P(m-Tol)3_130C_benzene
     RDKit          2D

 22 24  0  0  0  0  0  0  0  0999 V2000
    4.5000    2.5981    0.0000 C   0  0  0  0  0  0  0  0  0  0  0  0
    3.0000    2.5981    0.0000 C   0  0  0  0  0  0  0  0  0  0  0  0
    2.2500    1.2990    0.0000 C   0  0  0  0  0  0  0  0  0  0  0  0
    0.7500    1.2990    0.0000 C   0  0  0  0  0  0  0  0  0  0  0  0
    0.0000    2.5981    0.0000 C   0  0  0  0  0  0  0  0  0  0  0  0
    0.7500    3.8971    0.0000 C   0  0  0  0  0  0  0  0  0  0  0  0
    2.2500    3.8971    0.0000 C   0  0  0  0  0  0  0  0  0  0  0  0
    0.0000   -0.0000    0.0000 P   0  0  0  0  0  0  0  0  0  0  0  0
   -1.5000    0.0000    0.0000 C   0  0  0  0  0  0  0  0  0  0  0  0
   -2.2500    1.2990    0.0000 C   0  0  0  0  0  0  0  0  0  0  0  0
   -3.7500    1.2990    0.0000 C   0  0  0  0  0  0  0  0  0  0  0  0
   -4.5000    2.5981    0.0000 C   0  0  0  0  0  0  0  0  0  0  0  0
   -4.5000    0.0000    0.0000 C   0  0  0  0  0  0  0  0  0  0  0  0
   -3.7500   -1.2990    0.0000 C   0  0  0  0  0  0  0  0  0  0  0  0
   -2.2500   -1.2990    0.0000 C   0  0  0  0  0  0  0  0  0  0  0  0
    0.7500   -1.2990    0.0000 C   0  0  0  0  0  0  0  0  0  0  0  0
   -0.0000   -2.5981    0.0000 C   0  0  0  0  0  0  0  0  0  0  0  0
    0.7500   -3.8971    0.0000 C   0  0  0  0  0  0  0  0  0  0  0  0
   -0.0000   -5.1962    0.0000 C   0  0  0  0  0  0  0  0  0  0  0  0
    2.2500   -3.8971    0.0000 C   0  0  0  0  0  0  0  0  0  0  0  0
    3.0000   -2.5981    0.0000 C   0  0  0  0  0  0  0  0  0  0  0  0
    2.2500   -1.2990    0.0000 C   0  0  0  0  0  0  0  0  0  0  0  0
  1  2  1  0
  2  3  2  0
  3  4  1  0
  4  5  2  0
  5  6  1  0
  6  7  2  0
  4  8  1  0
  8  9  1  0
  9 10  2  0
 10 11  1  0
 11 12  1  0
 11 13  2  0
 13 14  1  0
 14 15  2  0
  8 16  1  0
 16 17  2  0
 17 18  1  0
 18 19  1  0
 18 20  2  0
 20 21  1  0
 21 22  2  0
  7  2  1  0
 15  9  1  0
 22 16  1  0
M  END
>  <linear_selectivity>  (122) 
28

>  <denticity>  (122) 
1

>  <ligand_class>  (122) 
phosphine

$$$$
P(m-Tol)3_130C_xylene
     RDKit          2D

 22 24  0  0  0  0  0  0  0  0999 V2000
    4.5000    2.5981    0.0000 C   0  0  0  0  0  0  0  0  0  0  0  0
    3.0000    2.5981    0.0000 C   0  0  0  0  0  0  0  0  0  0  0  0
    2.2500    1.2990    0.0000 C   0  0  0  0  0  0  0  0  0  0  0  0
    0.7500    1.2990    0.0000 C   0  0  0  0  0  0  0  0  0  0  0  0
    0.0000    2.5981    0.0000 C   0  0  0  0  0  0  0  0  0  0  0  0
    0.7500    3.8971    0.0000 C   0  0  0  0  0  0  0  0  0  0  0  0
    2.2500    3.8971    0.0000 C   0  0  0  0  0  0  0  0  0  0  0  0
    0.0000   -0.0000    0.0000 P   0  0  0  0  0  0  0  0  0  0  0  0
   -1.5000    0.0000    0.0000 C   0  0  0  0  0  0  0  0  0  0  0  0
   -2.2500    1.2990    0.0000 C   0  0  0  0  0  0  0  0  0  0  0  0
   -3.7500    1.2990    0.0000 C   0  0  0  0  0  0  0  0  0  0  0  0
   -4.5000    2.5981    0.0000 C   0  0  0  0  0  0  0  0  0  0  0  0
   -4.5000    0.0000    0.0000 C   0  0  0  0  0  0  0  0  0  0  0  0
   -3.7500   -1.2990    0.0000 C   0  0  0  0  0  0  0  0  0  0  0  0
   -2.2500   -1.2990    0.0000 C   0  0  0  0  0  0  0  0  0  0  0  0
    0.7500   -1.2990    0.0000 C   0  0  0  0  0  0  0  0  0  0  0  0
   -0.0000   -2.5981    0.0000 C   0  0  0  0  0  0  0  0  0  0  0  0
    0.7500   -3.8971    0.0000 C   0  0  0  0  0  0  0  0  0  0  0  0
   -0.0000   -5.1962    0.0000 C   0  0  0  0  0  0  0  0  0  0  0  0
    2.2500   -3.8971    0.0000 C   0  0  0  0  0  0  0  0  0  0  0  0
    3.0000   -2.5981    0.0000 C   0  0  0  0  0  0  0  0  0  0  0  0
    2.2500   -1.2990    0.0000 C   0  0  0  0  0  0  0  0  0  0  0  0
  1  2  1  0
  2  3  2  0
  3  4  1  0
  4  5  2  0
  5  6  1  0
  6  7  2  0
  4  8  1  0
  8  9  1  0
  9 10  2  0
 10 11  1  0
 11 12  1  0
 11 13  2  0
 13 14  1  0
 14 15  2  0
  8 16  1  0
 16 17  2  0
 17 18  1  0
 18 19  1  0
 18 20  2  0
 20 21  1  0
 21 22  2  0
  7  2  1  0
 15  9  1  0
 22 16  1  0
M  END
>  <linear_selectivity>  (123) 
30

>  <denticity>  (123) 
1

>  <ligand_class>  (123) 
phosphine

$$$$
PCy3
     RDKit          2D

 19 21  0  0  0  0  0  0  0  0999 V2000
    4.5000   -0.0000    0.0000 C   0  0  0  0  0  0  0  0  0  0  0  0
    3.7500   -1.2990    0.0000 C   0  0  0  0  0  0  0  0  0  0  0  0
    2.2500   -1.2990    0.0000 C   0  0  0  0  0  0  0  0  0  0  0  0
    1.5000   -0.0000    0.0000 C   0  0  0  0  0  0  0  0  0  0  0  0
    2.2500    1.2990    0.0000 C   0  0  0  0  0  0  0  0  0  0  0  0
    3.7500    1.2990    0.0000 C   0  0  0  0  0  0  0  0  0  0  0  0
    0.0000    0.0000    0.0000 P   0  0  0  0  0  0  0  0  0  0  0  0
   -0.7500    1.2990    0.0000 C   0  0  0  0  0  0  0  0  0  0  0  0
    0.0000    2.5981    0.0000 C   0  0  0  0  0  0  0  0  0  0  0  0
   -0.7500    3.8971    0.0000 C   0  0  0  0  0  0  0  0  0  0  0  0
   -2.2500    3.8971    0.0000 C   0  0  0  0  0  0  0  0  0  0  0  0
   -3.0000    2.5981    0.0000 C   0  0  0  0  0  0  0  0  0  0  0  0
   -2.2500    1.2990    0.0000 C   0  0  0  0  0  0  0  0  0  0  0  0
   -0.7500   -1.2990    0.0000 C   0  0  0  0  0  0  0  0  0  0  0  0
   -2.2500   -1.2990    0.0000 C   0  0  0  0  0  0  0  0  0  0  0  0
   -3.0000   -2.5981    0.0000 C   0  0  0  0  0  0  0  0  0  0  0  0
   -2.2500   -3.8971    0.0000 C   0  0  0  0  0  0  0  0  0  0  0  0
   -0.7500   -3.8971    0.0000 C   0  0  0  0  0  0  0  0  0  0  0  0
   -0.0000   -2.5981    0.0000 C   0  0  0  0  0  0  0  0  0  0  0  0
  1  2  1  0
  2  3  1  0
  3  4  1  0
  4  5  1  0
  5  6  1  0
  4  7  1  0
  7  8  1  0
  8  9  1  0
  9 10  1  0
 10 11  1  0
 11 12  1  0
 12 13  1  0
  7 14  1  0
 14 15  1  0
 15 16  1  0
 16 17  1  0
 17 18  1  0
 18 19  1  0
  6  1  1  0
 13  8  1  0
 19 14  1  0
M  END
>  <linear_selectivity>  (124) 
18

>  <denticity>  (124) 
1

>  <ligand_class>  (124) 
phosphine

$$$$
PCy3_70C_toluene
     RDKit          2D

 19 21  0  0  0  0  0  0  0  0999 V2000
    4.5000   -0.0000    0.0000 C   0  0  0  0  0  0  0  0  0  0  0  0
    3.7500   -1.2990    0.0000 C   0  0  0  0  0  0  0  0  0  0  0  0
    2.2500   -1.2990    0.0000 C   0  0  0  0  0  0  0  0  0  0  0  0
    1.5000   -0.0000    0.0000 C   0  0  0  0  0  0  0  0  0  0  0  0
    2.2500    1.2990    0.0000 C   0  0  0  0  0  0  0  0  0  0  0  0
    3.7500    1.2990    0.0000 C   0  0  0  0  0  0  0  0  0  0  0  0
    0.0000    0.0000    0.0000 P   0  0  0  0  0  0  0  0  0  0  0  0
   -0.7500    1.2990    0.0000 C   0  0  0  0  0  0  0  0  0  0  0  0
    0.0000    2.5981    0.0000 C   0  0  0  0  0  0  0  0  0  0  0  0
   -0.7500    3.8971    0.0000 C   0  0  0  0  0  0  0  0  0  0  0  0
   -2.2500    3.8971    0.0000 C   0  0  0  0  0  0  0  0  0  0  0  0
   -3.0000    2.5981    0.0000 C   0  0  0  0  0  0  0  0  0  0  0  0
   -2.2500    1.2990    0.0000 C   0  0  0  0  0  0  0  0  0  0  0  0
   -0.7500   -1.2990    0.0000 C   0  0  0  0  0  0  0  0  0  0  0  0
   -2.2500   -1.2990    0.0000 C   0  0  0  0  0  0  0  0  0  0  0  0
   -3.0000   -2.5981    0.0000 C   0  0  0  0  0  0  0  0  0  0  0  0
   -2.2500   -3.8971    0.0000 C   0  0  0  0  0  0  0  0  0  0  0  0
   -0.7500   -3.8971    0.0000 C   0  0  0  0  0  0  0  0  0  0  0  0
   -0.0000   -2.5981    0.0000 C   0  0  0  0  0  0  0  0  0  0  0  0
  1  2  1  0
  2  3  1  0
  3  4  1  0
  4  5  1  0
  5  6  1  0
  4  7  1  0
  7  8  1  0
  8  9  1  0
  9 10  1  0
 10 11  1  0
 11 12  1  0
 12 13  1  0
  7 14  1  0
 14 15  1  0
 15 16  1  0
 16 17  1  0
 17 18  1  0
 18 19  1  0
  6  1  1  0
 13  8  1  0
 19 14  1  0
M  END
>  <linear_selectivity>  (125) 
21

>  <denticity>  (125) 
1

>  <ligand_class>  (125) 
phosphine

$$$$
PCy3_70C_THF
     RDKit          2D

 19 21  0  0  0  0  0  0  0  0999 V2000
    4.5000   -0.0000    0.0000 C   0  0  0  0  0  0  0  0  0  0  0  0
    3.7500   -1.2990    0.0000 C   0  0  0  0  0  0  0  0  0  0  0  0
    2.2500   -1.2990    0.0000 C   0  0  0  0  0  0  0  0  0  0  0  0
    1.5000   -0.0000    0.0000 C   0  0  0  0  0  0  0  0  0  0  0  0
    2.2500    1.2990    0.0000 C   0  0  0  0  0  0  0  0  0  0  0  0
    3.7500    1.2990    0.0000 C   0  0  0  0  0  0  0  0  0  0  0  0
    0.0000    0.0000    0.0000 P   0  0  0  0  0  0  0  0  0  0  0  0
   -0.7500    1.2990    0.0000 C   0  0  0  0  0  0  0  0  0  0  0  0
    0.0000    2.5981    0.0000 C   0  0  0  0  0  0  0  0  0  0  0  0
   -0.7500    3.8971    0.0000 C   0  0  0  0  0  0  0  0  0  0  0  0
   -2.2500    3.8971    0.0000 C   0  0  0  0  0  0  0  0  0  0  0  0
   -3.0000    2.5981    0.0000 C   0  0  0  0  0  0  0  0  0  0  0  0
   -2.2500    1.2990    0.0000 C   0  0  0  0  0  0  0  0  0  0  0  0
   -0.7500   -1.2990    0.0000 C   0  0  0  0  0  0  0  0  0  0  0  0
   -2.2500   -1.2990    0.0000 C   0  0  0  0  0  0  0  0  0  0  0  0
   -3.0000   -2.5981    0.0000 C   0  0  0  0  0  0  0  0  0  0  0  0
   -2.2500   -3.8971    0.0000 C   0  0  0  0  0  0  0  0  0  0  0  0
   -0.7500   -3.8971    0.0000 C   0  0  0  0  0  0  0  0  0  0  0  0
   -0.0000   -2.5981    0.0000 C   0  0  0  0  0  0  0  0  0  0  0  0
  1  2  1  0
  2  3  1  0
  3  4  1  0
  4  5  1  0
  5  6  1  0
  4  7  1  0
  7  8  1  0
  8  9  1  0
  9 10  1  0
 10 11  1  0
 11 12  1  0
 12 13  1  0
  7 14  1  0
 14 15  1  0
 15 16  1  0
 16 17  1  0
 17 18  1  0
 18 19  1  0
  6  1  1  0
 13  8  1  0
 19 14  1  0
M  END
>  <linear_selectivity>  (126) 
20

>  <denticity>  (126) 
1

>  <ligand_class>  (126) 
phosphine

$$$$
PCy3_70C_hexane
     RDKit          2D

 19 21  0  0  0  0  0  0  0  0999 V2000
    4.5000   -0.0000    0.0000 C   0  0  0  0  0  0  0  0  0  0  0  0
    3.7500   -1.2990    0.0000 C   0  0  0  0  0  0  0  0  0  0  0  0
    2.2500   -1.2990    0.0000 C   0  0  0  0  0  0  0  0  0  0  0  0
    1.5000   -0.0000    0.0000 C   0  0  0  0  0  0  0  0  0  0  0  0
    2.2500    1.2990    0.0000 C   0  0  0  0  0  0  0  0  0  0  0  0
    3.7500    1.2990    0.0000 C   0  0  0  0  0  0  0  0  0  0  0  0
    0.0000    0.0000    0.0000 P   0  0  0  0  0  0  0  0  0  0  0  0
   -0.7500    1.2990    0.0000 C   0  0  0  0  0  0  0  0  0  0  0  0
    0.0000    2.5981    0.0000 C   0  0  0  0  0  0  0  0  0  0  0  0
   -0.7500    3.8971    0.0000 C   0  0  0  0  0  0  0  0  0  0  0  0
   -2.2500    3.8971    0.0000 C   0  0  0  0  0  0  0  0  0  0  0  0
   -3.0000    2.5981    0.0000 C   0  0  0  0  0  0  0  0  0  0  0  0
   -2.2500    1.2990    0.0000 C   0  0  0  0  0  0  0  0  0  0  0  0
   -0.7500   -1.2990    0.0000 C   0  0  0  0  0  0  0  0  0  0  0  0
   -2.2500   -1.2990    0.0000 C   0  0  0  0  0  0  0  0  0  0  0  0
   -3.0000   -2.5981    0.0000 C   0  0  0  0  0  0  0  0  0  0  0  0
   -2.2500   -3.8971    0.0000 C   0  0  0  0  0  0  0  0  0  0  0  0
   -0.7500   -3.8971    0.0000 C   0  0  0  0  0  0  0  0  0  0  0  0
   -0.0000   -2.5981    0.0000 C   0  0  0  0  0  0  0  0  0  0  0  0
  1  2  1  0
  2  3  1  0
  3  4  1  0
  4  5  1  0
  5  6  1  0
  4  7  1  0
  7  8  1  0
  8  9  1  0
  9 10  1  0
 10 11  1  0
 11 12  1  0
 12 13  1  0
  7 14  1  0
 14 15  1  0
 15 16  1  0
 16 17  1  0
 17 18  1  0
 18 19  1  0
  6  1  1  0
 13  8  1  0
 19 14  1  0
M  END
>  <linear_selectivity>  (127) 
23

>  <denticity>  (127) 
1

>  <ligand_class>  (127) 
phosphine

$$$$
PCy3_70C_benzene
     RDKit          2D

 19 21  0  0  0  0  0  0  0  0999 V2000
    4.5000   -0.0000    0.0000 C   0  0  0  0  0  0  0  0  0  0  0  0
    3.7500   -1.2990    0.0000 C   0  0  0  0  0  0  0  0  0  0  0  0
    2.2500   -1.2990    0.0000 C   0  0  0  0  0  0  0  0  0  0  0  0
    1.5000   -0.0000    0.0000 C   0  0  0  0  0  0  0  0  0  0  0  0
    2.2500    1.2990    0.0000 C   0  0  0  0  0  0  0  0  0  0  0  0
    3.7500    1.2990    0.0000 C   0  0  0  0  0  0  0  0  0  0  0  0
    0.0000    0.0000    0.0000 P   0  0  0  0  0  0  0  0  0  0  0  0
   -0.7500    1.2990    0.0000 C   0  0  0  0  0  0  0  0  0  0  0  0
    0.0000    2.5981    0.0000 C   0  0  0  0  0  0  0  0  0  0  0  0
   -0.7500    3.8971    0.0000 C   0  0  0  0  0  0  0  0  0  0  0  0
   -2.2500    3.8971    0.0000 C   0  0  0  0  0  0  0  0  0  0  0  0
   -3.0000    2.5981    0.0000 C   0  0  0  0  0  0  0  0  0  0  0  0
   -2.2500    1.2990    0.0000 C   0  0  0  0  0  0  0  0  0  0  0  0
   -0.7500   -1.2990    0.0000 C   0  0  0  0  0  0  0  0  0  0  0  0
   -2.2500   -1.2990    0.0000 C   0  0  0  0  0  0  0  0  0  0  0  0
   -3.0000   -2.5981    0.0000 C   0  0  0  0  0  0  0  0  0  0  0  0
   -2.2500   -3.8971    0.0000 C   0  0  0  0  0  0  0  0  0  0  0  0
   -0.7500   -3.8971    0.0000 C   0  0  0  0  0  0  0  0  0  0  0  0
   -0.0000   -2.5981    0.0000 C   0  0  0  0  0  0  0  0  0  0  0  0
  1  2  1  0
  2  3  1  0
  3  4  1  0
  4  5  1  0
  5  6  1  0
  4  7  1  0
  7  8  1  0
  8  9  1  0
  9 10  1  0
 10 11  1  0
 11 12  1  0
 12 13  1  0
  7 14  1  0
 14 15  1  0
 15 16  1  0
 16 17  1  0
 17 18  1  0
 18 19  1  0
  6  1  1  0
 13  8  1  0
 19 14  1  0
M  END
>  <linear_selectivity>  (128) 
17

>  <denticity>  (128) 
1

>  <ligand_class>  (128) 
phosphine

$$$$
PCy3_70C_xylene
     RDKit          2D

 19 21  0  0  0  0  0  0  0  0999 V2000
    4.5000   -0.0000    0.0000 C   0  0  0  0  0  0  0  0  0  0  0  0
    3.7500   -1.2990    0.0000 C   0  0  0  0  0  0  0  0  0  0  0  0
    2.2500   -1.2990    0.0000 C   0  0  0  0  0  0  0  0  0  0  0  0
    1.5000   -0.0000    0.0000 C   0  0  0  0  0  0  0  0  0  0  0  0
    2.2500    1.2990    0.0000 C   0  0  0  0  0  0  0  0  0  0  0  0
    3.7500    1.2990    0.0000 C   0  0  0  0  0  0  0  0  0  0  0  0
    0.0000    0.0000    0.0000 P   0  0  0  0  0  0  0  0  0  0  0  0
   -0.7500    1.2990    0.0000 C   0  0  0  0  0  0  0  0  0  0  0  0
    0.0000    2.5981    0.0000 C   0  0  0  0  0  0  0  0  0  0  0  0
   -0.7500    3.8971    0.0000 C   0  0  0  0  0  0  0  0  0  0  0  0
   -2.2500    3.8971    0.0000 C   0  0  0  0  0  0  0  0  0  0  0  0
   -3.0000    2.5981    0.0000 C   0  0  0  0  0  0  0  0  0  0  0  0
   -2.2500    1.2990    0.0000 C   0  0  0  0  0  0  0  0  0  0  0  0
   -0.7500   -1.2990    0.0000 C   0  0  0  0  0  0  0  0  0  0  0  0
   -2.2500   -1.2990    0.0000 C   0  0  0  0  0  0  0  0  0  0  0  0
   -3.0000   -2.5981    0.0000 C   0  0  0  0  0  0  0  0  0  0  0  0
   -2.2500   -3.8971    0.0000 C   0  0  0  0  0  0  0  0  0  0  0  0
   -0.7500   -3.8971    0.0000 C   0  0  0  0  0  0  0  0  0  0  0  0
   -0.0000   -2.5981    0.0000 C   0  0  0  0  0  0  0  0  0  0  0  0
  1  2  1  0
  2  3  1  0
  3  4  1  0
  4  5  1  0
  5  6  1  0
  4  7  1  0
  7  8  1  0
  8  9  1  0
  9 10  1  0
 10 11  1  0
 11 12  1  0
 12 13  1  0
  7 14  1  0
 14 15  1  0
 15 16  1  0
 16 17  1  0
 17 18  1  0
 18 19  1  0
  6  1  1  0
 13  8  1  0
 19 14  1  0
M  END
>  <linear_selectivity>  (129) 
20

>  <denticity>  (129) 
1

>  <ligand_class>  (129) 
phosphine

$$$$
PCy3_80C_toluene
     RDKit          2D

 19 21  0  0  0  0  0  0  0  0999 V2000
    4.5000   -0.0000    0.0000 C   0  0  0  0  0  0  0  0  0  0  0  0
    3.7500   -1.2990    0.0000 C   0  0  0  0  0  0  0  0  0  0  0  0
    2.2500   -1.2990    0.0000 C   0  0  0  0  0  0  0  0  0  0  0  0
    1.5000   -0.0000    0.0000 C   0  0  0  0  0  0  0  0  0  0  0  0
    2.2500    1.2990    0.0000 C   0  0  0  0  0  0  0  0  0  0  0  0
    3.7500    1.2990    0.0000 C   0  0  0  0  0  0  0  0  0  0  0  0
    0.0000    0.0000    0.0000 P   0  0  0  0  0  0  0  0  0  0  0  0
   -0.7500    1.2990    0.0000 C   0  0  0  0  0  0  0  0  0  0  0  0
    0.0000    2.5981    0.0000 C   0  0  0  0  0  0  0  0  0  0  0  0
   -0.7500    3.8971    0.0000 C   0  0  0  0  0  0  0  0  0  0  0  0
   -2.2500    3.8971    0.0000 C   0  0  0  0  0  0  0  0  0  0  0  0
   -3.0000    2.5981    0.0000 C   0  0  0  0  0  0  0  0  0  0  0  0
   -2.2500    1.2990    0.0000 C   0  0  0  0  0  0  0  0  0  0  0  0
   -0.7500   -1.2990    0.0000 C   0  0  0  0  0  0  0  0  0  0  0  0
   -2.2500   -1.2990    0.0000 C   0  0  0  0  0  0  0  0  0  0  0  0
   -3.0000   -2.5981    0.0000 C   0  0  0  0  0  0  0  0  0  0  0  0
   -2.2500   -3.8971    0.0000 C   0  0  0  0  0  0  0  0  0  0  0  0
   -0.7500   -3.8971    0.0000 C   0  0  0  0  0  0  0  0  0  0  0  0
   -0.0000   -2.5981    0.0000 C   0  0  0  0  0  0  0  0  0  0  0  0
  1  2  1  0
  2  3  1  0
  3  4  1  0
  4  5  1  0
  5  6  1  0
  4  7  1  0
  7  8  1  0
  8  9  1  0
  9 10  1  0
 10 11  1  0
 11 12  1  0
 12 13  1  0
  7 14  1  0
 14 15  1  0
 15 16  1  0
 16 17  1  0
 17 18  1  0
 18 19  1  0
  6  1  1  0
 13  8  1  0
 19 14  1  0
M  END
>  <linear_selectivity>  (130) 
19

>  <denticity>  (130) 
1

>  <ligand_class>  (130) 
phosphine

$$$$
PCy3_80C_THF
     RDKit          2D

 19 21  0  0  0  0  0  0  0  0999 V2000
    4.5000   -0.0000    0.0000 C   0  0  0  0  0  0  0  0  0  0  0  0
    3.7500   -1.2990    0.0000 C   0  0  0  0  0  0  0  0  0  0  0  0
    2.2500   -1.2990    0.0000 C   0  0  0  0  0  0  0  0  0  0  0  0
    1.5000   -0.0000    0.0000 C   0  0  0  0  0  0  0  0  0  0  0  0
    2.2500    1.2990    0.0000 C   0  0  0  0  0  0  0  0  0  0  0  0
    3.7500    1.2990    0.0000 C   0  0  0  0  0  0  0  0  0  0  0  0
    0.0000    0.0000    0.0000 P   0  0  0  0  0  0  0  0  0  0  0  0
   -0.7500    1.2990    0.0000 C   0  0  0  0  0  0  0  0  0  0  0  0
    0.0000    2.5981    0.0000 C   0  0  0  0  0  0  0  0  0  0  0  0
   -0.7500    3.8971    0.0000 C   0  0  0  0  0  0  0  0  0  0  0  0
   -2.2500    3.8971    0.0000 C   0  0  0  0  0  0  0  0  0  0  0  0
   -3.0000    2.5981    0.0000 C   0  0  0  0  0  0  0  0  0  0  0  0
   -2.2500    1.2990    0.0000 C   0  0  0  0  0  0  0  0  0  0  0  0
   -0.7500   -1.2990    0.0000 C   0  0  0  0  0  0  0  0  0  0  0  0
   -2.2500   -1.2990    0.0000 C   0  0  0  0  0  0  0  0  0  0  0  0
   -3.0000   -2.5981    0.0000 C   0  0  0  0  0  0  0  0  0  0  0  0
   -2.2500   -3.8971    0.0000 C   0  0  0  0  0  0  0  0  0  0  0  0
   -0.7500   -3.8971    0.0000 C   0  0  0  0  0  0  0  0  0  0  0  0
   -0.0000   -2.5981    0.0000 C   0  0  0  0  0  0  0  0  0  0  0  0
  1  2  1  0
  2  3  1  0
  3  4  1  0
  4  5  1  0
  5  6  1  0
  4  7  1  0
  7  8  1  0
  8  9  1  0
  9 10  1  0
 10 11  1  0
 11 12  1  0
 12 13  1  0
  7 14  1  0
 14 15  1  0
 15 16  1  0
 16 17  1  0
 17 18  1  0
 18 19  1  0
  6  1  1  0
 13  8  1  0
 19 14  1  0
M  END
>  <linear_selectivity>  (131) 
16

>  <denticity>  (131) 
1

>  <ligand_class>  (131) 
phosphine

$$$$
PCy3_80C_dioxane
     RDKit          2D

 19 21  0  0  0  0  0  0  0  0999 V2000
    4.5000   -0.0000    0.0000 C   0  0  0  0  0  0  0  0  0  0  0  0
    3.7500   -1.2990    0.0000 C   0  0  0  0  0  0  0  0  0  0  0  0
    2.2500   -1.2990    0.0000 C   0  0  0  0  0  0  0  0  0  0  0  0
    1.5000   -0.0000    0.0000 C   0  0  0  0  0  0  0  0  0  0  0  0
    2.2500    1.2990    0.0000 C   0  0  0  0  0  0  0  0  0  0  0  0
    3.7500    1.2990    0.0000 C   0  0  0  0  0  0  0  0  0  0  0  0
    0.0000    0.0000    0.0000 P   0  0  0  0  0  0  0  0  0  0  0  0
   -0.7500    1.2990    0.0000 C   0  0  0  0  0  0  0  0  0  0  0  0
    0.0000    2.5981    0.0000 C   0  0  0  0  0  0  0  0  0  0  0  0
   -0.7500    3.8971    0.0000 C   0  0  0  0  0  0  0  0  0  0  0  0
   -2.2500    3.8971    0.0000 C   0  0  0  0  0  0  0  0  0  0  0  0
   -3.0000    2.5981    0.0000 C   0  0  0  0  0  0  0  0  0  0  0  0
   -2.2500    1.2990    0.0000 C   0  0  0  0  0  0  0  0  0  0  0  0
   -0.7500   -1.2990    0.0000 C   0  0  0  0  0  0  0  0  0  0  0  0
   -2.2500   -1.2990    0.0000 C   0  0  0  0  0  0  0  0  0  0  0  0
   -3.0000   -2.5981    0.0000 C   0  0  0  0  0  0  0  0  0  0  0  0
   -2.2500   -3.8971    0.0000 C   0  0  0  0  0  0  0  0  0  0  0  0
   -0.7500   -3.8971    0.0000 C   0  0  0  0  0  0  0  0  0  0  0  0
   -0.0000   -2.5981    0.0000 C   0  0  0  0  0  0  0  0  0  0  0  0
  1  2  1  0
  2  3  1  0
  3  4  1  0
  4  5  1  0
  5  6  1  0
  4  7  1  0
  7  8  1  0
  8  9  1  0
  9 10  1  0
 10 11  1  0
 11 12  1  0
 12 13  1  0
  7 14  1  0
 14 15  1  0
 15 16  1  0
 16 17  1  0
 17 18  1  0
 18 19  1  0
  6  1  1  0
 13  8  1  0
 19 14  1  0
M  END
>  <linear_selectivity>  (132) 
21

>  <denticity>  (132) 
1

>  <ligand_class>  (132) 
phosphine

$$$$
PCy3_80C_hexane
     RDKit          2D

 19 21  0  0  0  0  0  0  0  0999 V2000
    4.5000   -0.0000    0.0000 C   0  0  0  0  0  0  0  0  0  0  0  0
    3.7500   -1.2990    0.0000 C   0  0  0  0  0  0  0  0  0  0  0  0
    2.2500   -1.2990    0.0000 C   0  0  0  0  0  0  0  0  0  0  0  0
    1.5000   -0.0000    0.0000 C   0  0  0  0  0  0  0  0  0  0  0  0
    2.2500    1.2990    0.0000 C   0  0  0  0  0  0  0  0  0  0  0  0
    3.7500    1.2990    0.0000 C   0  0  0  0  0  0  0  0  0  0  0  0
    0.0000    0.0000    0.0000 P   0  0  0  0  0  0  0  0  0  0  0  0
   -0.7500    1.2990    0.0000 C   0  0  0  0  0  0  0  0  0  0  0  0
    0.0000    2.5981    0.0000 C   0  0  0  0  0  0  0  0  0  0  0  0
   -0.7500    3.8971    0.0000 C   0  0  0  0  0  0  0  0  0  0  0  0
   -2.2500    3.8971    0.0000 C   0  0  0  0  0  0  0  0  0  0  0  0
   -3.0000    2.5981    0.0000 C   0  0  0  0  0  0  0  0  0  0  0  0
   -2.2500    1.2990    0.0000 C   0  0  0  0  0  0  0  0  0  0  0  0
   -0.7500   -1.2990    0.0000 C   0  0  0  0  0  0  0  0  0  0  0  0
   -2.2500   -1.2990    0.0000 C   0  0  0  0  0  0  0  0  0  0  0  0
   -3.0000   -2.5981    0.0000 C   0  0  0  0  0  0  0  0  0  0  0  0
   -2.2500   -3.8971    0.0000 C   0  0  0  0  0  0  0  0  0  0  0  0
   -0.7500   -3.8971    0.0000 C   0  0  0  0  0  0  0  0  0  0  0  0
   -0.0000   -2.5981    0.0000 C   0  0  0  0  0  0  0  0  0  0  0  0
  1  2  1  0
  2  3  1  0
  3  4  1  0
  4  5  1  0
  5  6  1  0
  4  7  1  0
  7  8  1  0
  8  9  1  0
  9 10  1  0
 10 11  1  0
 11 12  1  0
 12 13  1  0
  7 14  1  0
 14 15  1  0
 15 16  1  0
 16 17  1  0
 17 18  1  0
 18 19  1  0
  6  1  1  0
 13  8  1  0
 19 14  1  0
M  END
>  <linear_selectivity>  (133) 
18

>  <denticity>  (133) 
1

>  <ligand_class>  (133) 
phosphine

$$$$
PCy3_80C_benzene
     RDKit          2D

 19 21  0  0  0  0  0  0  0  0999 V2000
    4.5000   -0.0000    0.0000 C   0  0  0  0  0  0  0  0  0  0  0  0
    3.7500   -1.2990    0.0000 C   0  0  0  0  0  0  0  0  0  0  0  0
    2.2500   -1.2990    0.0000 C   0  0  0  0  0  0  0  0  0  0  0  0
    1.5000   -0.0000    0.0000 C   0  0  0  0  0  0  0  0  0  0  0  0
    2.2500    1.2990    0.0000 C   0  0  0  0  0  0  0  0  0  0  0  0
    3.7500    1.2990    0.0000 C   0  0  0  0  0  0  0  0  0  0  0  0
    0.0000    0.0000    0.0000 P   0  0  0  0  0  0  0  0  0  0  0  0
   -0.7500    1.2990    0.0000 C   0  0  0  0  0  0  0  0  0  0  0  0
    0.0000    2.5981    0.0000 C   0  0  0  0  0  0  0  0  0  0  0  0
   -0.7500    3.8971    0.0000 C   0  0  0  0  0  0  0  0  0  0  0  0
   -2.2500    3.8971    0.0000 C   0  0  0  0  0  0  0  0  0  0  0  0
   -3.0000    2.5981    0.0000 C   0  0  0  0  0  0  0  0  0  0  0  0
   -2.2500    1.2990    0.0000 C   0  0  0  0  0  0  0  0  0  0  0  0
   -0.7500   -1.2990    0.0000 C   0  0  0  0  0  0  0  0  0  0  0  0
   -2.2500   -1.2990    0.0000 C   0  0  0  0  0  0  0  0  0  0  0  0
   -3.0000   -2.5981    0.0000 C   0  0  0  0  0  0  0  0  0  0  0  0
   -2.2500   -3.8971    0.0000 C   0  0  0  0  0  0  0  0  0  0  0  0
   -0.7500   -3.8971    0.0000 C   0  0  0  0  0  0  0  0  0  0  0  0
   -0.0000   -2.5981    0.0000 C   0  0  0  0  0  0  0  0  0  0  0  0
  1  2  1  0
  2  3  1  0
  3  4  1  0
  4  5  1  0
  5  6  1  0
  4  7  1  0
  7  8  1  0
  8  9  1  0
  9 10  1  0
 10 11  1  0
 11 12  1  0
 12 13  1  0
  7 14  1  0
 14 15  1  0
 15 16  1  0
 16 17  1  0
 17 18  1  0
 18 19  1  0
  6  1  1  0
 13  8  1  0
 19 14  1  0
M  END
>  <linear_selectivity>  (134) 
18

>  <denticity>  (134) 
1

>  <ligand_class>  (134) 
phosphine

$$$$
PCy3_80C_xylene
     RDKit          2D

 19 21  0  0  0  0  0  0  0  0999 V2000
    4.5000   -0.0000    0.0000 C   0  0  0  0  0  0  0  0  0  0  0  0
    3.7500   -1.2990    0.0000 C   0  0  0  0  0  0  0  0  0  0  0  0
    2.2500   -1.2990    0.0000 C   0  0  0  0  0  0  0  0  0  0  0  0
    1.5000   -0.0000    0.0000 C   0  0  0  0  0  0  0  0  0  0  0  0
    2.2500    1.2990    0.0000 C   0  0  0  0  0  0  0  0  0  0  0  0
    3.7500    1.2990    0.0000 C   0  0  0  0  0  0  0  0  0  0  0  0
    0.0000    0.0000    0.0000 P   0  0  0  0  0  0  0  0  0  0  0  0
   -0.7500    1.2990    0.0000 C   0  0  0  0  0  0  0  0  0  0  0  0
    0.0000    2.5981    0.0000 C   0  0  0  0  0  0  0  0  0  0  0  0
   -0.7500    3.8971    0.0000 C   0  0  0  0  0  0  0  0  0  0  0  0
   -2.2500    3.8971    0.0000 C   0  0  0  0  0  0  0  0  0  0  0  0
   -3.0000    2.5981    0.0000 C   0  0  0  0  0  0  0  0  0  0  0  0
   -2.2500    1.2990    0.0000 C   0  0  0  0  0  0  0  0  0  0  0  0
   -0.7500   -1.2990    0.0000 C   0  0  0  0  0  0  0  0  0  0  0  0
   -2.2500   -1.2990    0.0000 C   0  0  0  0  0  0  0  0  0  0  0  0
   -3.0000   -2.5981    0.0000 C   0  0  0  0  0  0  0  0  0  0  0  0
   -2.2500   -3.8971    0.0000 C   0  0  0  0  0  0  0  0  0  0  0  0
   -0.7500   -3.8971    0.0000 C   0  0  0  0  0  0  0  0  0  0  0  0
   -0.0000   -2.5981    0.0000 C   0  0  0  0  0  0  0  0  0  0  0  0
  1  2  1  0
  2  3  1  0
  3  4  1  0
  4  5  1  0
  5  6  1  0
  4  7  1  0
  7  8  1  0
  8  9  1  0
  9 10  1  0
 10 11  1  0
 11 12  1  0
 12 13  1  0
  7 14  1  0
 14 15  1  0
 15 16  1  0
 16 17  1  0
 17 18  1  0
 18 19  1  0
  6  1  1  0
 13  8  1  0
 19 14  1  0
M  END
>  <linear_selectivity>  (135) 
19

>  <denticity>  (135) 
1

>  <ligand_class>  (135) 
phosphine

$$$$
PCy3_90C_toluene
     RDKit          2D

 19 21  0  0  0  0  0  0  0  0999 V2000
    4.5000   -0.0000    0.0000 C   0  0  0  0  0  0  0  0  0  0  0  0
    3.7500   -1.2990    0.0000 C   0  0  0  0  0  0  0  0  0  0  0  0
    2.2500   -1.2990    0.0000 C   0  0  0  0  0  0  0  0  0  0  0  0
    1.5000   -0.0000    0.0000 C   0  0  0  0  0  0  0  0  0  0  0  0
    2.2500    1.2990    0.0000 C   0  0  0  0  0  0  0  0  0  0  0  0
    3.7500    1.2990    0.0000 C   0  0  0  0  0  0  0  0  0  0  0  0
    0.0000    0.0000    0.0000 P   0  0  0  0  0  0  0  0  0  0  0  0
   -0.7500    1.2990    0.0000 C   0  0  0  0  0  0  0  0  0  0  0  0
    0.0000    2.5981    0.0000 C   0  0  0  0  0  0  0  0  0  0  0  0
   -0.7500    3.8971    0.0000 C   0  0  0  0  0  0  0  0  0  0  0  0
   -2.2500    3.8971    0.0000 C   0  0  0  0  0  0  0  0  0  0  0  0
   -3.0000    2.5981    0.0000 C   0  0  0  0  0  0  0  0  0  0  0  0
   -2.2500    1.2990    0.0000 C   0  0  0  0  0  0  0  0  0  0  0  0
   -0.7500   -1.2990    0.0000 C   0  0  0  0  0  0  0  0  0  0  0  0
   -2.2500   -1.2990    0.0000 C   0  0  0  0  0  0  0  0  0  0  0  0
   -3.0000   -2.5981    0.0000 C   0  0  0  0  0  0  0  0  0  0  0  0
   -2.2500   -3.8971    0.0000 C   0  0  0  0  0  0  0  0  0  0  0  0
   -0.7500   -3.8971    0.0000 C   0  0  0  0  0  0  0  0  0  0  0  0
   -0.0000   -2.5981    0.0000 C   0  0  0  0  0  0  0  0  0  0  0  0
  1  2  1  0
  2  3  1  0
  3  4  1  0
  4  5  1  0
  5  6  1  0
  4  7  1  0
  7  8  1  0
  8  9  1  0
  9 10  1  0
 10 11  1  0
 11 12  1  0
 12 13  1  0
  7 14  1  0
 14 15  1  0
 15 16  1  0
 16 17  1  0
 17 18  1  0
 18 19  1  0
  6  1  1  0
 13  8  1  0
 19 14  1  0
M  END
>  <linear_selectivity>  (136) 
17

>  <denticity>  (136) 
1

>  <ligand_class>  (136) 
phosphine

$$$$
PCy3_90C_hexane
     RDKit          2D

 19 21  0  0  0  0  0  0  0  0999 V2000
    4.5000   -0.0000    0.0000 C   0  0  0  0  0  0  0  0  0  0  0  0
    3.7500   -1.2990    0.0000 C   0  0  0  0  0  0  0  0  0  0  0  0
    2.2500   -1.2990    0.0000 C   0  0  0  0  0  0  0  0  0  0  0  0
    1.5000   -0.0000    0.0000 C   0  0  0  0  0  0  0  0  0  0  0  0
    2.2500    1.2990    0.0000 C   0  0  0  0  0  0  0  0  0  0  0  0
    3.7500    1.2990    0.0000 C   0  0  0  0  0  0  0  0  0  0  0  0
    0.0000    0.0000    0.0000 P   0  0  0  0  0  0  0  0  0  0  0  0
   -0.7500    1.2990    0.0000 C   0  0  0  0  0  0  0  0  0  0  0  0
    0.0000    2.5981    0.0000 C   0  0  0  0  0  0  0  0  0  0  0  0
   -0.7500    3.8971    0.0000 C   0  0  0  0  0  0  0  0  0  0  0  0
   -2.2500    3.8971    0.0000 C   0  0  0  0  0  0  0  0  0  0  0  0
   -3.0000    2.5981    0.0000 C   0  0  0  0  0  0  0  0  0  0  0  0
   -2.2500    1.2990    0.0000 C   0  0  0  0  0  0  0  0  0  0  0  0
   -0.7500   -1.2990    0.0000 C   0  0  0  0  0  0  0  0  0  0  0  0
   -2.2500   -1.2990    0.0000 C   0  0  0  0  0  0  0  0  0  0  0  0
   -3.0000   -2.5981    0.0000 C   0  0  0  0  0  0  0  0  0  0  0  0
   -2.2500   -3.8971    0.0000 C   0  0  0  0  0  0  0  0  0  0  0  0
   -0.7500   -3.8971    0.0000 C   0  0  0  0  0  0  0  0  0  0  0  0
   -0.0000   -2.5981    0.0000 C   0  0  0  0  0  0  0  0  0  0  0  0
  1  2  1  0
  2  3  1  0
  3  4  1  0
  4  5  1  0
  5  6  1  0
  4  7  1  0
  7  8  1  0
  8  9  1  0
  9 10  1  0
 10 11  1  0
 11 12  1  0
 12 13  1  0
  7 14  1  0
 14 15  1  0
 15 16  1  0
 16 17  1  0
 17 18  1  0
 18 19  1  0
  6  1  1  0
 13  8  1  0
 19 14  1  0
M  END
>  <linear_selectivity>  (137) 
18

>  <denticity>  (137) 
1

>  <ligand_class>  (137) 
phosphine

$$$$
PCy3_90C_xylene
     RDKit          2D

 19 21  0  0  0  0  0  0  0  0999 V2000
    4.5000   -0.0000    0.0000 C   0  0  0  0  0  0  0  0  0  0  0  0
    3.7500   -1.2990    0.0000 C   0  0  0  0  0  0  0  0  0  0  0  0
    2.2500   -1.2990    0.0000 C   0  0  0  0  0  0  0  0  0  0  0  0
    1.5000   -0.0000    0.0000 C   0  0  0  0  0  0  0  0  0  0  0  0
    2.2500    1.2990    0.0000 C   0  0  0  0  0  0  0  0  0  0  0  0
    3.7500    1.2990    0.0000 C   0  0  0  0  0  0  0  0  0  0  0  0
    0.0000    0.0000    0.0000 P   0  0  0  0  0  0  0  0  0  0  0  0
   -0.7500    1.2990    0.0000 C   0  0  0  0  0  0  0  0  0  0  0  0
    0.0000    2.5981    0.0000 C   0  0  0  0  0  0  0  0  0  0  0  0
   -0.7500    3.8971    0.0000 C   0  0  0  0  0  0  0  0  0  0  0  0
   -2.2500    3.8971    0.0000 C   0  0  0  0  0  0  0  0  0  0  0  0
   -3.0000    2.5981    0.0000 C   0  0  0  0  0  0  0  0  0  0  0  0
   -2.2500    1.2990    0.0000 C   0  0  0  0  0  0  0  0  0  0  0  0
   -0.7500   -1.2990    0.0000 C   0  0  0  0  0  0  0  0  0  0  0  0
   -2.2500   -1.2990    0.0000 C   0  0  0  0  0  0  0  0  0  0  0  0
   -3.0000   -2.5981    0.0000 C   0  0  0  0  0  0  0  0  0  0  0  0
   -2.2500   -3.8971    0.0000 C   0  0  0  0  0  0  0  0  0  0  0  0
   -0.7500   -3.8971    0.0000 C   0  0  0  0  0  0  0  0  0  0  0  0
   -0.0000   -2.5981    0.0000 C   0  0  0  0  0  0  0  0  0  0  0  0
  1  2  1  0
  2  3  1  0
  3  4  1  0
  4  5  1  0
  5  6  1  0
  4  7  1  0
  7  8  1  0
  8  9  1  0
  9 10  1  0
 10 11  1  0
 11 12  1  0
 12 13  1  0
  7 14  1  0
 14 15  1  0
 15 16  1  0
 16 17  1  0
 17 18  1  0
 18 19  1  0
  6  1  1  0
 13  8  1  0
 19 14  1  0
M  END
>  <linear_selectivity>  (138) 
16

>  <denticity>  (138) 
1

>  <ligand_class>  (138) 
phosphine

$$$$
PCy3_100C_dioxane
     RDKit          2D

 19 21  0  0  0  0  0  0  0  0999 V2000
    4.5000   -0.0000    0.0000 C   0  0  0  0  0  0  0  0  0  0  0  0
    3.7500   -1.2990    0.0000 C   0  0  0  0  0  0  0  0  0  0  0  0
    2.2500   -1.2990    0.0000 C   0  0  0  0  0  0  0  0  0  0  0  0
    1.5000   -0.0000    0.0000 C   0  0  0  0  0  0  0  0  0  0  0  0
    2.2500    1.2990    0.0000 C   0  0  0  0  0  0  0  0  0  0  0  0
    3.7500    1.2990    0.0000 C   0  0  0  0  0  0  0  0  0  0  0  0
    0.0000    0.0000    0.0000 P   0  0  0  0  0  0  0  0  0  0  0  0
   -0.7500    1.2990    0.0000 C   0  0  0  0  0  0  0  0  0  0  0  0
    0.0000    2.5981    0.0000 C   0  0  0  0  0  0  0  0  0  0  0  0
   -0.7500    3.8971    0.0000 C   0  0  0  0  0  0  0  0  0  0  0  0
   -2.2500    3.8971    0.0000 C   0  0  0  0  0  0  0  0  0  0  0  0
   -3.0000    2.5981    0.0000 C   0  0  0  0  0  0  0  0  0  0  0  0
   -2.2500    1.2990    0.0000 C   0  0  0  0  0  0  0  0  0  0  0  0
   -0.7500   -1.2990    0.0000 C   0  0  0  0  0  0  0  0  0  0  0  0
   -2.2500   -1.2990    0.0000 C   0  0  0  0  0  0  0  0  0  0  0  0
   -3.0000   -2.5981    0.0000 C   0  0  0  0  0  0  0  0  0  0  0  0
   -2.2500   -3.8971    0.0000 C   0  0  0  0  0  0  0  0  0  0  0  0
   -0.7500   -3.8971    0.0000 C   0  0  0  0  0  0  0  0  0  0  0  0
   -0.0000   -2.5981    0.0000 C   0  0  0  0  0  0  0  0  0  0  0  0
  1  2  1  0
  2  3  1  0
  3  4  1  0
  4  5  1  0
  5  6  1  0
  4  7  1  0
  7  8  1  0
  8  9  1  0
  9 10  1  0
 10 11  1  0
 11 12  1  0
 12 13  1  0
  7 14  1  0
 14 15  1  0
 15 16  1  0
 16 17  1  0
 17 18  1  0
 18 19  1  0
  6  1  1  0
 13  8  1  0
 19 14  1  0
M  END
>  <linear_selectivity>  (139) 
15

>  <denticity>  (139) 
1

>  <ligand_class>  (139) 
phosphine

$$$$
PCy3_100C_hexane
     RDKit          2D

 19 21  0  0  0  0  0  0  0  0999 V2000
    4.5000   -0.0000    0.0000 C   0  0  0  0  0  0  0  0  0  0  0  0
    3.7500   -1.2990    0.0000 C   0  0  0  0  0  0  0  0  0  0  0  0
    2.2500   -1.2990    0.0000 C   0  0  0  0  0  0  0  0  0  0  0  0
    1.5000   -0.0000    0.0000 C   0  0  0  0  0  0  0  0  0  0  0  0
    2.2500    1.2990    0.0000 C   0  0  0  0  0  0  0  0  0  0  0  0
    3.7500    1.2990    0.0000 C   0  0  0  0  0  0  0  0  0  0  0  0
    0.0000    0.0000    0.0000 P   0  0  0  0  0  0  0  0  0  0  0  0
   -0.7500    1.2990    0.0000 C   0  0  0  0  0  0  0  0  0  0  0  0
    0.0000    2.5981    0.0000 C   0  0  0  0  0  0  0  0  0  0  0  0
   -0.7500    3.8971    0.0000 C   0  0  0  0  0  0  0  0  0  0  0  0
   -2.2500    3.8971    0.0000 C   0  0  0  0  0  0  0  0  0  0  0  0
   -3.0000    2.5981    0.0000 C   0  0  0  0  0  0  0  0  0  0  0  0
   -2.2500    1.2990    0.0000 C   0  0  0  0  0  0  0  0  0  0  0  0
   -0.7500   -1.2990    0.0000 C   0  0  0  0  0  0  0  0  0  0  0  0
   -2.2500   -1.2990    0.0000 C   0  0  0  0  0  0  0  0  0  0  0  0
   -3.0000   -2.5981    0.0000 C   0  0  0  0  0  0  0  0  0  0  0  0
   -2.2500   -3.8971    0.0000 C   0  0  0  0  0  0  0  0  0  0  0  0
   -0.7500   -3.8971    0.0000 C   0  0  0  0  0  0  0  0  0  0  0  0
   -0.0000   -2.5981    0.0000 C   0  0  0  0  0  0  0  0  0  0  0  0
  1  2  1  0
  2  3  1  0
  3  4  1  0
  4  5  1  0
  5  6  1  0
  4  7  1  0
  7  8  1  0
  8  9  1  0
  9 10  1  0
 10 11  1  0
 11 12  1  0
 12 13  1  0
  7 14  1  0
 14 15  1  0
 15 16  1  0
 16 17  1  0
 17 18  1  0
 18 19  1  0
  6  1  1  0
 13  8  1  0
 19 14  1  0
M  END
>  <linear_selectivity>  (140) 
18

>  <denticity>  (140) 
1

>  <ligand_class>  (140) 
phosphine

$$$$
PCy3_100C_benzene
     RDKit          2D

 19 21  0  0  0  0  0  0  0  0999 V2000
    4.5000   -0.0000    0.0000 C   0  0  0  0  0  0  0  0  0  0  0  0
    3.7500   -1.2990    0.0000 C   0  0  0  0  0  0  0  0  0  0  0  0
    2.2500   -1.2990    0.0000 C   0  0  0  0  0  0  0  0  0  0  0  0
    1.5000   -0.0000    0.0000 C   0  0  0  0  0  0  0  0  0  0  0  0
    2.2500    1.2990    0.0000 C   0  0  0  0  0  0  0  0  0  0  0  0
    3.7500    1.2990    0.0000 C   0  0  0  0  0  0  0  0  0  0  0  0
    0.0000    0.0000    0.0000 P   0  0  0  0  0  0  0  0  0  0  0  0
   -0.7500    1.2990    0.0000 C   0  0  0  0  0  0  0  0  0  0  0  0
    0.0000    2.5981    0.0000 C   0  0  0  0  0  0  0  0  0  0  0  0
   -0.7500    3.8971    0.0000 C   0  0  0  0  0  0  0  0  0  0  0  0
   -2.2500    3.8971    0.0000 C   0  0  0  0  0  0  0  0  0  0  0  0
   -3.0000    2.5981    0.0000 C   0  0  0  0  0  0  0  0  0  0  0  0
   -2.2500    1.2990    0.0000 C   0  0  0  0  0  0  0  0  0  0  0  0
   -0.7500   -1.2990    0.0000 C   0  0  0  0  0  0  0  0  0  0  0  0
   -2.2500   -1.2990    0.0000 C   0  0  0  0  0  0  0  0  0  0  0  0
   -3.0000   -2.5981    0.0000 C   0  0  0  0  0  0  0  0  0  0  0  0
   -2.2500   -3.8971    0.0000 C   0  0  0  0  0  0  0  0  0  0  0  0
   -0.7500   -3.8971    0.0000 C   0  0  0  0  0  0  0  0  0  0  0  0
   -0.0000   -2.5981    0.0000 C   0  0  0  0  0  0  0  0  0  0  0  0
  1  2  1  0
  2  3  1  0
  3  4  1  0
  4  5  1  0
  5  6  1  0
  4  7  1  0
  7  8  1  0
  8  9  1  0
  9 10  1  0
 10 11  1  0
 11 12  1  0
 12 13  1  0
  7 14  1  0
 14 15  1  0
 15 16  1  0
 16 17  1  0
 17 18  1  0
 18 19  1  0
  6  1  1  0
 13  8  1  0
 19 14  1  0
M  END
>  <linear_selectivity>  (141) 
18

>  <denticity>  (141) 
1

>  <ligand_class>  (141) 
phosphine

$$$$
PCy3_100C_xylene
     RDKit          2D

 19 21  0  0  0  0  0  0  0  0999 V2000
    4.5000   -0.0000    0.0000 C   0  0  0  0  0  0  0  0  0  0  0  0
    3.7500   -1.2990    0.0000 C   0  0  0  0  0  0  0  0  0  0  0  0
    2.2500   -1.2990    0.0000 C   0  0  0  0  0  0  0  0  0  0  0  0
    1.5000   -0.0000    0.0000 C   0  0  0  0  0  0  0  0  0  0  0  0
    2.2500    1.2990    0.0000 C   0  0  0  0  0  0  0  0  0  0  0  0
    3.7500    1.2990    0.0000 C   0  0  0  0  0  0  0  0  0  0  0  0
    0.0000    0.0000    0.0000 P   0  0  0  0  0  0  0  0  0  0  0  0
   -0.7500    1.2990    0.0000 C   0  0  0  0  0  0  0  0  0  0  0  0
    0.0000    2.5981    0.0000 C   0  0  0  0  0  0  0  0  0  0  0  0
   -0.7500    3.8971    0.0000 C   0  0  0  0  0  0  0  0  0  0  0  0
   -2.2500    3.8971    0.0000 C   0  0  0  0  0  0  0  0  0  0  0  0
   -3.0000    2.5981    0.0000 C   0  0  0  0  0  0  0  0  0  0  0  0
   -2.2500    1.2990    0.0000 C   0  0  0  0  0  0  0  0  0  0  0  0
   -0.7500   -1.2990    0.0000 C   0  0  0  0  0  0  0  0  0  0  0  0
   -2.2500   -1.2990    0.0000 C   0  0  0  0  0  0  0  0  0  0  0  0
   -3.0000   -2.5981    0.0000 C   0  0  0  0  0  0  0  0  0  0  0  0
   -2.2500   -3.8971    0.0000 C   0  0  0  0  0  0  0  0  0  0  0  0
   -0.7500   -3.8971    0.0000 C   0  0  0  0  0  0  0  0  0  0  0  0
   -0.0000   -2.5981    0.0000 C   0  0  0  0  0  0  0  0  0  0  0  0
  1  2  1  0
  2  3  1  0
  3  4  1  0
  4  5  1  0
  5  6  1  0
  4  7  1  0
  7  8  1  0
  8  9  1  0
  9 10  1  0
 10 11  1  0
 11 12  1  0
 12 13  1  0
  7 14  1  0
 14 15  1  0
 15 16  1  0
 16 17  1  0
 17 18  1  0
 18 19  1  0
  6  1  1  0
 13  8  1  0
 19 14  1  0
M  END
>  <linear_selectivity>  (142) 
17

>  <denticity>  (142) 
1

>  <ligand_class>  (142) 
phosphine

$$$$
PCy3_110C_toluene
     RDKit          2D

 19 21  0  0  0  0  0  0  0  0999 V2000
    4.5000   -0.0000    0.0000 C   0  0  0  0  0  0  0  0  0  0  0  0
    3.7500   -1.2990    0.0000 C   0  0  0  0  0  0  0  0  0  0  0  0
    2.2500   -1.2990    0.0000 C   0  0  0  0  0  0  0  0  0  0  0  0
    1.5000   -0.0000    0.0000 C   0  0  0  0  0  0  0  0  0  0  0  0
    2.2500    1.2990    0.0000 C   0  0  0  0  0  0  0  0  0  0  0  0
    3.7500    1.2990    0.0000 C   0  0  0  0  0  0  0  0  0  0  0  0
    0.0000    0.0000    0.0000 P   0  0  0  0  0  0  0  0  0  0  0  0
   -0.7500    1.2990    0.0000 C   0  0  0  0  0  0  0  0  0  0  0  0
    0.0000    2.5981    0.0000 C   0  0  0  0  0  0  0  0  0  0  0  0
   -0.7500    3.8971    0.0000 C   0  0  0  0  0  0  0  0  0  0  0  0
   -2.2500    3.8971    0.0000 C   0  0  0  0  0  0  0  0  0  0  0  0
   -3.0000    2.5981    0.0000 C   0  0  0  0  0  0  0  0  0  0  0  0
   -2.2500    1.2990    0.0000 C   0  0  0  0  0  0  0  0  0  0  0  0
   -0.7500   -1.2990    0.0000 C   0  0  0  0  0  0  0  0  0  0  0  0
   -2.2500   -1.2990    0.0000 C   0  0  0  0  0  0  0  0  0  0  0  0
   -3.0000   -2.5981    0.0000 C   0  0  0  0  0  0  0  0  0  0  0  0
   -2.2500   -3.8971    0.0000 C   0  0  0  0  0  0  0  0  0  0  0  0
   -0.7500   -3.8971    0.0000 C   0  0  0  0  0  0  0  0  0  0  0  0
   -0.0000   -2.5981    0.0000 C   0  0  0  0  0  0  0  0  0  0  0  0
  1  2  1  0
  2  3  1  0
  3  4  1  0
  4  5  1  0
  5  6  1  0
  4  7  1  0
  7  8  1  0
  8  9  1  0
  9 10  1  0
 10 11  1  0
 11 12  1  0
 12 13  1  0
  7 14  1  0
 14 15  1  0
 15 16  1  0
 16 17  1  0
 17 18  1  0
 18 19  1  0
  6  1  1  0
 13  8  1  0
 19 14  1  0
M  END
>  <linear_selectivity>  (143) 
17

>  <denticity>  (143) 
1

>  <ligand_class>  (143) 
phosphine

$$$$
PCy3_110C_THF
     RDKit          2D

 19 21  0  0  0  0  0  0  0  0999 V2000
    4.5000   -0.0000    0.0000 C   0  0  0  0  0  0  0  0  0  0  0  0
    3.7500   -1.2990    0.0000 C   0  0  0  0  0  0  0  0  0  0  0  0
    2.2500   -1.2990    0.0000 C   0  0  0  0  0  0  0  0  0  0  0  0
    1.5000   -0.0000    0.0000 C   0  0  0  0  0  0  0  0  0  0  0  0
    2.2500    1.2990    0.0000 C   0  0  0  0  0  0  0  0  0  0  0  0
    3.7500    1.2990    0.0000 C   0  0  0  0  0  0  0  0  0  0  0  0
    0.0000    0.0000    0.0000 P   0  0  0  0  0  0  0  0  0  0  0  0
   -0.7500    1.2990    0.0000 C   0  0  0  0  0  0  0  0  0  0  0  0
    0.0000    2.5981    0.0000 C   0  0  0  0  0  0  0  0  0  0  0  0
   -0.7500    3.8971    0.0000 C   0  0  0  0  0  0  0  0  0  0  0  0
   -2.2500    3.8971    0.0000 C   0  0  0  0  0  0  0  0  0  0  0  0
   -3.0000    2.5981    0.0000 C   0  0  0  0  0  0  0  0  0  0  0  0
   -2.2500    1.2990    0.0000 C   0  0  0  0  0  0  0  0  0  0  0  0
   -0.7500   -1.2990    0.0000 C   0  0  0  0  0  0  0  0  0  0  0  0
   -2.2500   -1.2990    0.0000 C   0  0  0  0  0  0  0  0  0  0  0  0
   -3.0000   -2.5981    0.0000 C   0  0  0  0  0  0  0  0  0  0  0  0
   -2.2500   -3.8971    0.0000 C   0  0  0  0  0  0  0  0  0  0  0  0
   -0.7500   -3.8971    0.0000 C   0  0  0  0  0  0  0  0  0  0  0  0
   -0.0000   -2.5981    0.0000 C   0  0  0  0  0  0  0  0  0  0  0  0
  1  2  1  0
  2  3  1  0
  3  4  1  0
  4  5  1  0
  5  6  1  0
  4  7  1  0
  7  8  1  0
  8  9  1  0
  9 10  1  0
 10 11  1  0
 11 12  1  0
 12 13  1  0
  7 14  1  0
 14 15  1  0
 15 16  1  0
 16 17  1  0
 17 18  1  0
 18 19  1  0
  6  1  1  0
 13  8  1  0
 19 14  1  0
M  END
>  <linear_selectivity>  (144) 
17

>  <denticity>  (144) 
1

>  <ligand_class>  (144) 
phosphine

$$$$
PCy3_110C_dioxane
     RDKit          2D

 19 21  0  0  0  0  0  0  0  0999 V2000
    4.5000   -0.0000    0.0000 C   0  0  0  0  0  0  0  0  0  0  0  0
    3.7500   -1.2990    0.0000 C   0  0  0  0  0  0  0  0  0  0  0  0
    2.2500   -1.2990    0.0000 C   0  0  0  0  0  0  0  0  0  0  0  0
    1.5000   -0.0000    0.0000 C   0  0  0  0  0  0  0  0  0  0  0  0
    2.2500    1.2990    0.0000 C   0  0  0  0  0  0  0  0  0  0  0  0
    3.7500    1.2990    0.0000 C   0  0  0  0  0  0  0  0  0  0  0  0
    0.0000    0.0000    0.0000 P   0  0  0  0  0  0  0  0  0  0  0  0
   -0.7500    1.2990    0.0000 C   0  0  0  0  0  0  0  0  0  0  0  0
    0.0000    2.5981    0.0000 C   0  0  0  0  0  0  0  0  0  0  0  0
   -0.7500    3.8971    0.0000 C   0  0  0  0  0  0  0  0  0  0  0  0
   -2.2500    3.8971    0.0000 C   0  0  0  0  0  0  0  0  0  0  0  0
   -3.0000    2.5981    0.0000 C   0  0  0  0  0  0  0  0  0  0  0  0
   -2.2500    1.2990    0.0000 C   0  0  0  0  0  0  0  0  0  0  0  0
   -0.7500   -1.2990    0.0000 C   0  0  0  0  0  0  0  0  0  0  0  0
   -2.2500   -1.2990    0.0000 C   0  0  0  0  0  0  0  0  0  0  0  0
   -3.0000   -2.5981    0.0000 C   0  0  0  0  0  0  0  0  0  0  0  0
   -2.2500   -3.8971    0.0000 C   0  0  0  0  0  0  0  0  0  0  0  0
   -0.7500   -3.8971    0.0000 C   0  0  0  0  0  0  0  0  0  0  0  0
   -0.0000   -2.5981    0.0000 C   0  0  0  0  0  0  0  0  0  0  0  0
  1  2  1  0
  2  3  1  0
  3  4  1  0
  4  5  1  0
  5  6  1  0
  4  7  1  0
  7  8  1  0
  8  9  1  0
  9 10  1  0
 10 11  1  0
 11 12  1  0
 12 13  1  0
  7 14  1  0
 14 15  1  0
 15 16  1  0
 16 17  1  0
 17 18  1  0
 18 19  1  0
  6  1  1  0
 13  8  1  0
 19 14  1  0
M  END
>  <linear_selectivity>  (145) 
15

>  <denticity>  (145) 
1

>  <ligand_class>  (145) 
phosphine

$$$$
PCy3_110C_xylene
     RDKit          2D

 19 21  0  0  0  0  0  0  0  0999 V2000
    4.5000   -0.0000    0.0000 C   0  0  0  0  0  0  0  0  0  0  0  0
    3.7500   -1.2990    0.0000 C   0  0  0  0  0  0  0  0  0  0  0  0
    2.2500   -1.2990    0.0000 C   0  0  0  0  0  0  0  0  0  0  0  0
    1.5000   -0.0000    0.0000 C   0  0  0  0  0  0  0  0  0  0  0  0
    2.2500    1.2990    0.0000 C   0  0  0  0  0  0  0  0  0  0  0  0
    3.7500    1.2990    0.0000 C   0  0  0  0  0  0  0  0  0  0  0  0
    0.0000    0.0000    0.0000 P   0  0  0  0  0  0  0  0  0  0  0  0
   -0.7500    1.2990    0.0000 C   0  0  0  0  0  0  0  0  0  0  0  0
    0.0000    2.5981    0.0000 C   0  0  0  0  0  0  0  0  0  0  0  0
   -0.7500    3.8971    0.0000 C   0  0  0  0  0  0  0  0  0  0  0  0
   -2.2500    3.8971    0.0000 C   0  0  0  0  0  0  0  0  0  0  0  0
   -3.0000    2.5981    0.0000 C   0  0  0  0  0  0  0  0  0  0  0  0
   -2.2500    1.2990    0.0000 C   0  0  0  0  0  0  0  0  0  0  0  0
   -0.7500   -1.2990    0.0000 C   0  0  0  0  0  0  0  0  0  0  0  0
   -2.2500   -1.2990    0.0000 C   0  0  0  0  0  0  0  0  0  0  0  0
   -3.0000   -2.5981    0.0000 C   0  0  0  0  0  0  0  0  0  0  0  0
   -2.2500   -3.8971    0.0000 C   0  0  0  0  0  0  0  0  0  0  0  0
   -0.7500   -3.8971    0.0000 C   0  0  0  0  0  0  0  0  0  0  0  0
   -0.0000   -2.5981    0.0000 C   0  0  0  0  0  0  0  0  0  0  0  0
  1  2  1  0
  2  3  1  0
  3  4  1  0
  4  5  1  0
  5  6  1  0
  4  7  1  0
  7  8  1  0
  8  9  1  0
  9 10  1  0
 10 11  1  0
 11 12  1  0
 12 13  1  0
  7 14  1  0
 14 15  1  0
 15 16  1  0
 16 17  1  0
 17 18  1  0
 18 19  1  0
  6  1  1  0
 13  8  1  0
 19 14  1  0
M  END
>  <linear_selectivity>  (146) 
19

>  <denticity>  (146) 
1

>  <ligand_class>  (146) 
phosphine

$$$$
PCy3_120C_toluene
     RDKit          2D

 19 21  0  0  0  0  0  0  0  0999 V2000
    4.5000   -0.0000    0.0000 C   0  0  0  0  0  0  0  0  0  0  0  0
    3.7500   -1.2990    0.0000 C   0  0  0  0  0  0  0  0  0  0  0  0
    2.2500   -1.2990    0.0000 C   0  0  0  0  0  0  0  0  0  0  0  0
    1.5000   -0.0000    0.0000 C   0  0  0  0  0  0  0  0  0  0  0  0
    2.2500    1.2990    0.0000 C   0  0  0  0  0  0  0  0  0  0  0  0
    3.7500    1.2990    0.0000 C   0  0  0  0  0  0  0  0  0  0  0  0
    0.0000    0.0000    0.0000 P   0  0  0  0  0  0  0  0  0  0  0  0
   -0.7500    1.2990    0.0000 C   0  0  0  0  0  0  0  0  0  0  0  0
    0.0000    2.5981    0.0000 C   0  0  0  0  0  0  0  0  0  0  0  0
   -0.7500    3.8971    0.0000 C   0  0  0  0  0  0  0  0  0  0  0  0
   -2.2500    3.8971    0.0000 C   0  0  0  0  0  0  0  0  0  0  0  0
   -3.0000    2.5981    0.0000 C   0  0  0  0  0  0  0  0  0  0  0  0
   -2.2500    1.2990    0.0000 C   0  0  0  0  0  0  0  0  0  0  0  0
   -0.7500   -1.2990    0.0000 C   0  0  0  0  0  0  0  0  0  0  0  0
   -2.2500   -1.2990    0.0000 C   0  0  0  0  0  0  0  0  0  0  0  0
   -3.0000   -2.5981    0.0000 C   0  0  0  0  0  0  0  0  0  0  0  0
   -2.2500   -3.8971    0.0000 C   0  0  0  0  0  0  0  0  0  0  0  0
   -0.7500   -3.8971    0.0000 C   0  0  0  0  0  0  0  0  0  0  0  0
   -0.0000   -2.5981    0.0000 C   0  0  0  0  0  0  0  0  0  0  0  0
  1  2  1  0
  2  3  1  0
  3  4  1  0
  4  5  1  0
  5  6  1  0
  4  7  1  0
  7  8  1  0
  8  9  1  0
  9 10  1  0
 10 11  1  0
 11 12  1  0
 12 13  1  0
  7 14  1  0
 14 15  1  0
 15 16  1  0
 16 17  1  0
 17 18  1  0
 18 19  1  0
  6  1  1  0
 13  8  1  0
 19 14  1  0
M  END
>  <linear_selectivity>  (147) 
16

>  <denticity>  (147) 
1

>  <ligand_class>  (147) 
phosphine

$$$$
PCy3_120C_dioxane
     RDKit          2D

 19 21  0  0  0  0  0  0  0  0999 V2000
    4.5000   -0.0000    0.0000 C   0  0  0  0  0  0  0  0  0  0  0  0
    3.7500   -1.2990    0.0000 C   0  0  0  0  0  0  0  0  0  0  0  0
    2.2500   -1.2990    0.0000 C   0  0  0  0  0  0  0  0  0  0  0  0
    1.5000   -0.0000    0.0000 C   0  0  0  0  0  0  0  0  0  0  0  0
    2.2500    1.2990    0.0000 C   0  0  0  0  0  0  0  0  0  0  0  0
    3.7500    1.2990    0.0000 C   0  0  0  0  0  0  0  0  0  0  0  0
    0.0000    0.0000    0.0000 P   0  0  0  0  0  0  0  0  0  0  0  0
   -0.7500    1.2990    0.0000 C   0  0  0  0  0  0  0  0  0  0  0  0
    0.0000    2.5981    0.0000 C   0  0  0  0  0  0  0  0  0  0  0  0
   -0.7500    3.8971    0.0000 C   0  0  0  0  0  0  0  0  0  0  0  0
   -2.2500    3.8971    0.0000 C   0  0  0  0  0  0  0  0  0  0  0  0
   -3.0000    2.5981    0.0000 C   0  0  0  0  0  0  0  0  0  0  0  0
   -2.2500    1.2990    0.0000 C   0  0  0  0  0  0  0  0  0  0  0  0
   -0.7500   -1.2990    0.0000 C   0  0  0  0  0  0  0  0  0  0  0  0
   -2.2500   -1.2990    0.0000 C   0  0  0  0  0  0  0  0  0  0  0  0
   -3.0000   -2.5981    0.0000 C   0  0  0  0  0  0  0  0  0  0  0  0
   -2.2500   -3.8971    0.0000 C   0  0  0  0  0  0  0  0  0  0  0  0
   -0.7500   -3.8971    0.0000 C   0  0  0  0  0  0  0  0  0  0  0  0
   -0.0000   -2.5981    0.0000 C   0  0  0  0  0  0  0  0  0  0  0  0
  1  2  1  0
  2  3  1  0
  3  4  1  0
  4  5  1  0
  5  6  1  0
  4  7  1  0
  7  8  1  0
  8  9  1  0
  9 10  1  0
 10 11  1  0
 11 12  1  0
 12 13  1  0
  7 14  1  0
 14 15  1  0
 15 16  1  0
 16 17  1  0
 17 18  1  0
 18 19  1  0
  6  1  1  0
 13  8  1  0
 19 14  1  0
M  END
>  <linear_selectivity>  (148) 
18

>  <denticity>  (148) 
1

>  <ligand_class>  (148) 
phosphine

$$$$
PCy3_120C_hexane
     RDKit          2D

 19 21  0  0  0  0  0  0  0  0999 V2000
    4.5000   -0.0000    0.0000 C   0  0  0  0  0  0  0  0  0  0  0  0
    3.7500   -1.2990    0.0000 C   0  0  0  0  0  0  0  0  0  0  0  0
    2.2500   -1.2990    0.0000 C   0  0  0  0  0  0  0  0  0  0  0  0
    1.5000   -0.0000    0.0000 C   0  0  0  0  0  0  0  0  0  0  0  0
    2.2500    1.2990    0.0000 C   0  0  0  0  0  0  0  0  0  0  0  0
    3.7500    1.2990    0.0000 C   0  0  0  0  0  0  0  0  0  0  0  0
    0.0000    0.0000    0.0000 P   0  0  0  0  0  0  0  0  0  0  0  0
   -0.7500    1.2990    0.0000 C   0  0  0  0  0  0  0  0  0  0  0  0
    0.0000    2.5981    0.0000 C   0  0  0  0  0  0  0  0  0  0  0  0
   -0.7500    3.8971    0.0000 C   0  0  0  0  0  0  0  0  0  0  0  0
   -2.2500    3.8971    0.0000 C   0  0  0  0  0  0  0  0  0  0  0  0
   -3.0000    2.5981    0.0000 C   0  0  0  0  0  0  0  0  0  0  0  0
   -2.2500    1.2990    0.0000 C   0  0  0  0  0  0  0  0  0  0  0  0
   -0.7500   -1.2990    0.0000 C   0  0  0  0  0  0  0  0  0  0  0  0
   -2.2500   -1.2990    0.0000 C   0  0  0  0  0  0  0  0  0  0  0  0
   -3.0000   -2.5981    0.0000 C   0  0  0  0  0  0  0  0  0  0  0  0
   -2.2500   -3.8971    0.0000 C   0  0  0  0  0  0  0  0  0  0  0  0
   -0.7500   -3.8971    0.0000 C   0  0  0  0  0  0  0  0  0  0  0  0
   -0.0000   -2.5981    0.0000 C   0  0  0  0  0  0  0  0  0  0  0  0
  1  2  1  0
  2  3  1  0
  3  4  1  0
  4  5  1  0
  5  6  1  0
  4  7  1  0
  7  8  1  0
  8  9  1  0
  9 10  1  0
 10 11  1  0
 11 12  1  0
 12 13  1  0
  7 14  1  0
 14 15  1  0
 15 16  1  0
 16 17  1  0
 17 18  1  0
 18 19  1  0
  6  1  1  0
 13  8  1  0
 19 14  1  0
M  END
>  <linear_selectivity>  (149) 
16

>  <denticity>  (149) 
1

>  <ligand_class>  (149) 
phosphine

$$$$
PCy3_120C_benzene
     RDKit          2D

 19 21  0  0  0  0  0  0  0  0999 V2000
    4.5000   -0.0000    0.0000 C   0  0  0  0  0  0  0  0  0  0  0  0
    3.7500   -1.2990    0.0000 C   0  0  0  0  0  0  0  0  0  0  0  0
    2.2500   -1.2990    0.0000 C   0  0  0  0  0  0  0  0  0  0  0  0
    1.5000   -0.0000    0.0000 C   0  0  0  0  0  0  0  0  0  0  0  0
    2.2500    1.2990    0.0000 C   0  0  0  0  0  0  0  0  0  0  0  0
    3.7500    1.2990    0.0000 C   0  0  0  0  0  0  0  0  0  0  0  0
    0.0000    0.0000    0.0000 P   0  0  0  0  0  0  0  0  0  0  0  0
   -0.7500    1.2990    0.0000 C   0  0  0  0  0  0  0  0  0  0  0  0
    0.0000    2.5981    0.0000 C   0  0  0  0  0  0  0  0  0  0  0  0
   -0.7500    3.8971    0.0000 C   0  0  0  0  0  0  0  0  0  0  0  0
   -2.2500    3.8971    0.0000 C   0  0  0  0  0  0  0  0  0  0  0  0
   -3.0000    2.5981    0.0000 C   0  0  0  0  0  0  0  0  0  0  0  0
   -2.2500    1.2990    0.0000 C   0  0  0  0  0  0  0  0  0  0  0  0
   -0.7500   -1.2990    0.0000 C   0  0  0  0  0  0  0  0  0  0  0  0
   -2.2500   -1.2990    0.0000 C   0  0  0  0  0  0  0  0  0  0  0  0
   -3.0000   -2.5981    0.0000 C   0  0  0  0  0  0  0  0  0  0  0  0
   -2.2500   -3.8971    0.0000 C   0  0  0  0  0  0  0  0  0  0  0  0
   -0.7500   -3.8971    0.0000 C   0  0  0  0  0  0  0  0  0  0  0  0
   -0.0000   -2.5981    0.0000 C   0  0  0  0  0  0  0  0  0  0  0  0
  1  2  1  0
  2  3  1  0
  3  4  1  0
  4  5  1  0
  5  6  1  0
  4  7  1  0
  7  8  1  0
  8  9  1  0
  9 10  1  0
 10 11  1  0
 11 12  1  0
 12 13  1  0
  7 14  1  0
 14 15  1  0
 15 16  1  0
 16 17  1  0
 17 18  1  0
 18 19  1  0
  6  1  1  0
 13  8  1  0
 19 14  1  0
M  END
>  <linear_selectivity>  (150) 
16

>  <denticity>  (150) 
1

>  <ligand_class>  (150) 
phosphine

$$$$
PCy3_120C_xylene
     RDKit          2D

 19 21  0  0  0  0  0  0  0  0999 V2000
    4.5000   -0.0000    0.0000 C   0  0  0  0  0  0  0  0  0  0  0  0
    3.7500   -1.2990    0.0000 C   0  0  0  0  0  0  0  0  0  0  0  0
    2.2500   -1.2990    0.0000 C   0  0  0  0  0  0  0  0  0  0  0  0
    1.5000   -0.0000    0.0000 C   0  0  0  0  0  0  0  0  0  0  0  0
    2.2500    1.2990    0.0000 C   0  0  0  0  0  0  0  0  0  0  0  0
    3.7500    1.2990    0.0000 C   0  0  0  0  0  0  0  0  0  0  0  0
    0.0000    0.0000    0.0000 P   0  0  0  0  0  0  0  0  0  0  0  0
   -0.7500    1.2990    0.0000 C   0  0  0  0  0  0  0  0  0  0  0  0
    0.0000    2.5981    0.0000 C   0  0  0  0  0  0  0  0  0  0  0  0
   -0.7500    3.8971    0.0000 C   0  0  0  0  0  0  0  0  0  0  0  0
   -2.2500    3.8971    0.0000 C   0  0  0  0  0  0  0  0  0  0  0  0
   -3.0000    2.5981    0.0000 C   0  0  0  0  0  0  0  0  0  0  0  0
   -2.2500    1.2990    0.0000 C   0  0  0  0  0  0  0  0  0  0  0  0
   -0.7500   -1.2990    0.0000 C   0  0  0  0  0  0  0  0  0  0  0  0
   -2.2500   -1.2990    0.0000 C   0  0  0  0  0  0  0  0  0  0  0  0
   -3.0000   -2.5981    0.0000 C   0  0  0  0  0  0  0  0  0  0  0  0
   -2.2500   -3.8971    0.0000 C   0  0  0  0  0  0  0  0  0  0  0  0
   -0.7500   -3.8971    0.0000 C   0  0  0  0  0  0  0  0  0  0  0  0
   -0.0000   -2.5981    0.0000 C   0  0  0  0  0  0  0  0  0  0  0  0
  1  2  1  0
  2  3  1  0
  3  4  1  0
  4  5  1  0
  5  6  1  0
  4  7  1  0
  7  8  1  0
  8  9  1  0
  9 10  1  0
 10 11  1  0
 11 12  1  0
 12 13  1  0
  7 14  1  0
 14 15  1  0
 15 16  1  0
 16 17  1  0
 17 18  1  0
 18 19  1  0
  6  1  1  0
 13  8  1  0
 19 14  1  0
M  END
>  <linear_selectivity>  (151) 
14

>  <denticity>  (151) 
1

>  <ligand_class>  (151) 
phosphine

$$$$
PCy3_130C_toluene
     RDKit          2D

 19 21  0  0  0  0  0  0  0  0999 V2000
    4.5000   -0.0000    0.0000 C   0  0  0  0  0  0  0  0  0  0  0  0
    3.7500   -1.2990    0.0000 C   0  0  0  0  0  0  0  0  0  0  0  0
    2.2500   -1.2990    0.0000 C   0  0  0  0  0  0  0  0  0  0  0  0
    1.5000   -0.0000    0.0000 C   0  0  0  0  0  0  0  0  0  0  0  0
    2.2500    1.2990    0.0000 C   0  0  0  0  0  0  0  0  0  0  0  0
    3.7500    1.2990    0.0000 C   0  0  0  0  0  0  0  0  0  0  0  0
    0.0000    0.0000    0.0000 P   0  0  0  0  0  0  0  0  0  0  0  0
   -0.7500    1.2990    0.0000 C   0  0  0  0  0  0  0  0  0  0  0  0
    0.0000    2.5981    0.0000 C   0  0  0  0  0  0  0  0  0  0  0  0
   -0.7500    3.8971    0.0000 C   0  0  0  0  0  0  0  0  0  0  0  0
   -2.2500    3.8971    0.0000 C   0  0  0  0  0  0  0  0  0  0  0  0
   -3.0000    2.5981    0.0000 C   0  0  0  0  0  0  0  0  0  0  0  0
   -2.2500    1.2990    0.0000 C   0  0  0  0  0  0  0  0  0  0  0  0
   -0.7500   -1.2990    0.0000 C   0  0  0  0  0  0  0  0  0  0  0  0
   -2.2500   -1.2990    0.0000 C   0  0  0  0  0  0  0  0  0  0  0  0
   -3.0000   -2.5981    0.0000 C   0  0  0  0  0  0  0  0  0  0  0  0
   -2.2500   -3.8971    0.0000 C   0  0  0  0  0  0  0  0  0  0  0  0
   -0.7500   -3.8971    0.0000 C   0  0  0  0  0  0  0  0  0  0  0  0
   -0.0000   -2.5981    0.0000 C   0  0  0  0  0  0  0  0  0  0  0  0
  1  2  1  0
  2  3  1  0
  3  4  1  0
  4  5  1  0
  5  6  1  0
  4  7  1  0
  7  8  1  0
  8  9  1  0
  9 10  1  0
 10 11  1  0
 11 12  1  0
 12 13  1  0
  7 14  1  0
 14 15  1  0
 15 16  1  0
 16 17  1  0
 17 18  1  0
 18 19  1  0
  6  1  1  0
 13  8  1  0
 19 14  1  0
M  END
>  <linear_selectivity>  (152) 
14

>  <denticity>  (152) 
1

>  <ligand_class>  (152) 
phosphine

$$$$
PCy3_130C_THF
     RDKit          2D

 19 21  0  0  0  0  0  0  0  0999 V2000
    4.5000   -0.0000    0.0000 C   0  0  0  0  0  0  0  0  0  0  0  0
    3.7500   -1.2990    0.0000 C   0  0  0  0  0  0  0  0  0  0  0  0
    2.2500   -1.2990    0.0000 C   0  0  0  0  0  0  0  0  0  0  0  0
    1.5000   -0.0000    0.0000 C   0  0  0  0  0  0  0  0  0  0  0  0
    2.2500    1.2990    0.0000 C   0  0  0  0  0  0  0  0  0  0  0  0
    3.7500    1.2990    0.0000 C   0  0  0  0  0  0  0  0  0  0  0  0
    0.0000    0.0000    0.0000 P   0  0  0  0  0  0  0  0  0  0  0  0
   -0.7500    1.2990    0.0000 C   0  0  0  0  0  0  0  0  0  0  0  0
    0.0000    2.5981    0.0000 C   0  0  0  0  0  0  0  0  0  0  0  0
   -0.7500    3.8971    0.0000 C   0  0  0  0  0  0  0  0  0  0  0  0
   -2.2500    3.8971    0.0000 C   0  0  0  0  0  0  0  0  0  0  0  0
   -3.0000    2.5981    0.0000 C   0  0  0  0  0  0  0  0  0  0  0  0
   -2.2500    1.2990    0.0000 C   0  0  0  0  0  0  0  0  0  0  0  0
   -0.7500   -1.2990    0.0000 C   0  0  0  0  0  0  0  0  0  0  0  0
   -2.2500   -1.2990    0.0000 C   0  0  0  0  0  0  0  0  0  0  0  0
   -3.0000   -2.5981    0.0000 C   0  0  0  0  0  0  0  0  0  0  0  0
   -2.2500   -3.8971    0.0000 C   0  0  0  0  0  0  0  0  0  0  0  0
   -0.7500   -3.8971    0.0000 C   0  0  0  0  0  0  0  0  0  0  0  0
   -0.0000   -2.5981    0.0000 C   0  0  0  0  0  0  0  0  0  0  0  0
  1  2  1  0
  2  3  1  0
  3  4  1  0
  4  5  1  0
  5  6  1  0
  4  7  1  0
  7  8  1  0
  8  9  1  0
  9 10  1  0
 10 11  1  0
 11 12  1  0
 12 13  1  0
  7 14  1  0
 14 15  1  0
 15 16  1  0
 16 17  1  0
 17 18  1  0
 18 19  1  0
  6  1  1  0
 13  8  1  0
 19 14  1  0
M  END
>  <linear_selectivity>  (153) 
17

>  <denticity>  (153) 
1

>  <ligand_class>  (153) 
phosphine

$$$$
PCy3_130C_hexane
     RDKit          2D

 19 21  0  0  0  0  0  0  0  0999 V2000
    4.5000   -0.0000    0.0000 C   0  0  0  0  0  0  0  0  0  0  0  0
    3.7500   -1.2990    0.0000 C   0  0  0  0  0  0  0  0  0  0  0  0
    2.2500   -1.2990    0.0000 C   0  0  0  0  0  0  0  0  0  0  0  0
    1.5000   -0.0000    0.0000 C   0  0  0  0  0  0  0  0  0  0  0  0
    2.2500    1.2990    0.0000 C   0  0  0  0  0  0  0  0  0  0  0  0
    3.7500    1.2990    0.0000 C   0  0  0  0  0  0  0  0  0  0  0  0
    0.0000    0.0000    0.0000 P   0  0  0  0  0  0  0  0  0  0  0  0
   -0.7500    1.2990    0.0000 C   0  0  0  0  0  0  0  0  0  0  0  0
    0.0000    2.5981    0.0000 C   0  0  0  0  0  0  0  0  0  0  0  0
   -0.7500    3.8971    0.0000 C   0  0  0  0  0  0  0  0  0  0  0  0
   -2.2500    3.8971    0.0000 C   0  0  0  0  0  0  0  0  0  0  0  0
   -3.0000    2.5981    0.0000 C   0  0  0  0  0  0  0  0  0  0  0  0
   -2.2500    1.2990    0.0000 C   0  0  0  0  0  0  0  0  0  0  0  0
   -0.7500   -1.2990    0.0000 C   0  0  0  0  0  0  0  0  0  0  0  0
   -2.2500   -1.2990    0.0000 C   0  0  0  0  0  0  0  0  0  0  0  0
   -3.0000   -2.5981    0.0000 C   0  0  0  0  0  0  0  0  0  0  0  0
   -2.2500   -3.8971    0.0000 C   0  0  0  0  0  0  0  0  0  0  0  0
   -0.7500   -3.8971    0.0000 C   0  0  0  0  0  0  0  0  0  0  0  0
   -0.0000   -2.5981    0.0000 C   0  0  0  0  0  0  0  0  0  0  0  0
  1  2  1  0
  2  3  1  0
  3  4  1  0
  4  5  1  0
  5  6  1  0
  4  7  1  0
  7  8  1  0
  8  9  1  0
  9 10  1  0
 10 11  1  0
 11 12  1  0
 12 13  1  0
  7 14  1  0
 14 15  1  0
 15 16  1  0
 16 17  1  0
 17 18  1  0
 18 19  1  0
  6  1  1  0
 13  8  1  0
 19 14  1  0
M  END
>  <linear_selectivity>  (154) 
15

>  <denticity>  (154) 
1

>  <ligand_class>  (154) 
phosphine

$$$$
PCy3_130C_xylene
     RDKit          2D

 19 21  0  0  0  0  0  0  0  0999 V2000
    4.5000   -0.0000    0.0000 C   0  0  0  0  0  0  0  0  0  0  0  0
    3.7500   -1.2990    0.0000 C   0  0  0  0  0  0  0  0  0  0  0  0
    2.2500   -1.2990    0.0000 C   0  0  0  0  0  0  0  0  0  0  0  0
    1.5000   -0.0000    0.0000 C   0  0  0  0  0  0  0  0  0  0  0  0
    2.2500    1.2990    0.0000 C   0  0  0  0  0  0  0  0  0  0  0  0
    3.7500    1.2990    0.0000 C   0  0  0  0  0  0  0  0  0  0  0  0
    0.0000    0.0000    0.0000 P   0  0  0  0  0  0  0  0  0  0  0  0
   -0.7500    1.2990    0.0000 C   0  0  0  0  0  0  0  0  0  0  0  0
    0.0000    2.5981    0.0000 C   0  0  0  0  0  0  0  0  0  0  0  0
   -0.7500    3.8971    0.0000 C   0  0  0  0  0  0  0  0  0  0  0  0
   -2.2500    3.8971    0.0000 C   0  0  0  0  0  0  0  0  0  0  0  0
   -3.0000    2.5981    0.0000 C   0  0  0  0  0  0  0  0  0  0  0  0
   -2.2500    1.2990    0.0000 C   0  0  0  0  0  0  0  0  0  0  0  0
   -0.7500   -1.2990    0.0000 C   0  0  0  0  0  0  0  0  0  0  0  0
   -2.2500   -1.2990    0.0000 C   0  0  0  0  0  0  0  0  0  0  0  0
   -3.0000   -2.5981    0.0000 C   0  0  0  0  0  0  0  0  0  0  0  0
   -2.2500   -3.8971    0.0000 C   0  0  0  0  0  0  0  0  0  0  0  0
   -0.7500   -3.8971    0.0000 C   0  0  0  0  0  0  0  0  0  0  0  0
   -0.0000   -2.5981    0.0000 C   0  0  0  0  0  0  0  0  0  0  0  0
  1  2  1  0
  2  3  1  0
  3  4  1  0
  4  5  1  0
  5  6  1  0
  4  7  1  0
  7  8  1  0
  8  9  1  0
  9 10  1  0
 10 11  1  0
 11 12  1  0
 12 13  1  0
  7 14  1  0
 14 15  1  0
 15 16  1  0
 16 17  1  0
 17 18  1  0
 18 19  1  0
  6  1  1  0
 13  8  1  0
 19 14  1  0
M  END
>  <linear_selectivity>  (155) 
12

>  <denticity>  (155) 
1

>  <ligand_class>  (155) 
phosphine

$$$$
P(iPr)3
     RDKit          2D

 10  9  0  0  0  0  0  0  0  0999 V2000
   -1.2990   -2.2500    0.0000 C   0  0  0  0  0  0  0  0  0  0  0  0
    0.0000   -1.5000    0.0000 C   0  0  0  0  0  0  0  0  0  0  0  0
    1.2990   -2.2500    0.0000 C   0  0  0  0  0  0  0  0  0  0  0  0
    0.0000    0.0000    0.0000 P   0  0  0  0  0  0  0  0  0  0  0  0
    1.2990    0.7500    0.0000 C   0  0  0  0  0  0  0  0  0  0  0  0
    1.2990    2.2500    0.0000 C   0  0  0  0  0  0  0  0  0  0  0  0
    2.5981    0.0000    0.0000 C   0  0  0  0  0  0  0  0  0  0  0  0
   -1.2990    0.7500    0.0000 C   0  0  0  0  0  0  0  0  0  0  0  0
   -1.2990    2.2500    0.0000 C   0  0  0  0  0  0  0  0  0  0  0  0
   -2.5981   -0.0000    0.0000 C   0  0  0  0  0  0  0  0  0  0  0  0
  1  2  1  0
  2  3  1  0
  2  4  1  0
  4  5  1  0
  5  6  1  0
  5  7  1  0
  4  8  1  0
  8  9  1  0
  8 10  1  0
M  END
>  <linear_selectivity>  (156) 
15

>  <denticity>  (156) 
1

>  <ligand_class>  (156) 
phosphine

$$$$
P(iPr)3_70C_toluene
     RDKit          2D

 10  9  0  0  0  0  0  0  0  0999 V2000
   -1.2990   -2.2500    0.0000 C   0  0  0  0  0  0  0  0  0  0  0  0
    0.0000   -1.5000    0.0000 C   0  0  0  0  0  0  0  0  0  0  0  0
    1.2990   -2.2500    0.0000 C   0  0  0  0  0  0  0  0  0  0  0  0
    0.0000    0.0000    0.0000 P   0  0  0  0  0  0  0  0  0  0  0  0
    1.2990    0.7500    0.0000 C   0  0  0  0  0  0  0  0  0  0  0  0
    1.2990    2.2500    0.0000 C   0  0  0  0  0  0  0  0  0  0  0  0
    2.5981    0.0000    0.0000 C   0  0  0  0  0  0  0  0  0  0  0  0
   -1.2990    0.7500    0.0000 C   0  0  0  0  0  0  0  0  0  0  0  0
   -1.2990    2.2500    0.0000 C   0  0  0  0  0  0  0  0  0  0  0  0
   -2.5981   -0.0000    0.0000 C   0  0  0  0  0  0  0  0  0  0  0  0
  1  2  1  0
  2  3  1  0
  2  4  1  0
  4  5  1  0
  5  6  1  0
  5  7  1  0
  4  8  1  0
  8  9  1  0
  8 10  1  0
M  END
>  <linear_selectivity>  (157) 
16

>  <denticity>  (157) 
1

>  <ligand_class>  (157) 
phosphine

$$$$
P(iPr)3_70C_THF
     RDKit          2D

 10  9  0  0  0  0  0  0  0  0999 V2000
   -1.2990   -2.2500    0.0000 C   0  0  0  0  0  0  0  0  0  0  0  0
    0.0000   -1.5000    0.0000 C   0  0  0  0  0  0  0  0  0  0  0  0
    1.2990   -2.2500    0.0000 C   0  0  0  0  0  0  0  0  0  0  0  0
    0.0000    0.0000    0.0000 P   0  0  0  0  0  0  0  0  0  0  0  0
    1.2990    0.7500    0.0000 C   0  0  0  0  0  0  0  0  0  0  0  0
    1.2990    2.2500    0.0000 C   0  0  0  0  0  0  0  0  0  0  0  0
    2.5981    0.0000    0.0000 C   0  0  0  0  0  0  0  0  0  0  0  0
   -1.2990    0.7500    0.0000 C   0  0  0  0  0  0  0  0  0  0  0  0
   -1.2990    2.2500    0.0000 C   0  0  0  0  0  0  0  0  0  0  0  0
   -2.5981   -0.0000    0.0000 C   0  0  0  0  0  0  0  0  0  0  0  0
  1  2  1  0
  2  3  1  0
  2  4  1  0
  4  5  1  0
  5  6  1  0
  5  7  1  0
  4  8  1  0
  8  9  1  0
  8 10  1  0
M  END
>  <linear_selectivity>  (158) 
17

>  <denticity>  (158) 
1

>  <ligand_class>  (158) 
phosphine

$$$$
P(iPr)3_70C_dioxane
     RDKit          2D

 10  9  0  0  0  0  0  0  0  0999 V2000
   -1.2990   -2.2500    0.0000 C   0  0  0  0  0  0  0  0  0  0  0  0
    0.0000   -1.5000    0.0000 C   0  0  0  0  0  0  0  0  0  0  0  0
    1.2990   -2.2500    0.0000 C   0  0  0  0  0  0  0  0  0  0  0  0
    0.0000    0.0000    0.0000 P   0  0  0  0  0  0  0  0  0  0  0  0
    1.2990    0.7500    0.0000 C   0  0  0  0  0  0  0  0  0  0  0  0
    1.2990    2.2500    0.0000 C   0  0  0  0  0  0  0  0  0  0  0  0
    2.5981    0.0000    0.0000 C   0  0  0  0  0  0  0  0  0  0  0  0
   -1.2990    0.7500    0.0000 C   0  0  0  0  0  0  0  0  0  0  0  0
   -1.2990    2.2500    0.0000 C   0  0  0  0  0  0  0  0  0  0  0  0
   -2.5981   -0.0000    0.0000 C   0  0  0  0  0  0  0  0  0  0  0  0
  1  2  1  0
  2  3  1  0
  2  4  1  0
  4  5  1  0
  5  6  1  0
  5  7  1  0
  4  8  1  0
  8  9  1  0
  8 10  1  0
M  END
>  <linear_selectivity>  (159) 
14

>  <denticity>  (159) 
1

>  <ligand_class>  (159) 
phosphine

$$$$
P(iPr)3_70C_hexane
     RDKit          2D

 10  9  0  0  0  0  0  0  0  0999 V2000
   -1.2990   -2.2500    0.0000 C   0  0  0  0  0  0  0  0  0  0  0  0
    0.0000   -1.5000    0.0000 C   0  0  0  0  0  0  0  0  0  0  0  0
    1.2990   -2.2500    0.0000 C   0  0  0  0  0  0  0  0  0  0  0  0
    0.0000    0.0000    0.0000 P   0  0  0  0  0  0  0  0  0  0  0  0
    1.2990    0.7500    0.0000 C   0  0  0  0  0  0  0  0  0  0  0  0
    1.2990    2.2500    0.0000 C   0  0  0  0  0  0  0  0  0  0  0  0
    2.5981    0.0000    0.0000 C   0  0  0  0  0  0  0  0  0  0  0  0
   -1.2990    0.7500    0.0000 C   0  0  0  0  0  0  0  0  0  0  0  0
   -1.2990    2.2500    0.0000 C   0  0  0  0  0  0  0  0  0  0  0  0
   -2.5981   -0.0000    0.0000 C   0  0  0  0  0  0  0  0  0  0  0  0
  1  2  1  0
  2  3  1  0
  2  4  1  0
  4  5  1  0
  5  6  1  0
  5  7  1  0
  4  8  1  0
  8  9  1  0
  8 10  1  0
M  END
>  <linear_selectivity>  (160) 
18

>  <denticity>  (160) 
1

>  <ligand_class>  (160) 
phosphine

$$$$
P(iPr)3_70C_benzene
     RDKit          2D

 10  9  0  0  0  0  0  0  0  0999 V2000
   -1.2990   -2.2500    0.0000 C   0  0  0  0  0  0  0  0  0  0  0  0
    0.0000   -1.5000    0.0000 C   0  0  0  0  0  0  0  0  0  0  0  0
    1.2990   -2.2500    0.0000 C   0  0  0  0  0  0  0  0  0  0  0  0
    0.0000    0.0000    0.0000 P   0  0  0  0  0  0  0  0  0  0  0  0
    1.2990    0.7500    0.0000 C   0  0  0  0  0  0  0  0  0  0  0  0
    1.2990    2.2500    0.0000 C   0  0  0  0  0  0  0  0  0  0  0  0
    2.5981    0.0000    0.0000 C   0  0  0  0  0  0  0  0  0  0  0  0
   -1.2990    0.7500    0.0000 C   0  0  0  0  0  0  0  0  0  0  0  0
   -1.2990    2.2500    0.0000 C   0  0  0  0  0  0  0  0  0  0  0  0
   -2.5981   -0.0000    0.0000 C   0  0  0  0  0  0  0  0  0  0  0  0
  1  2  1  0
  2  3  1  0
  2  4  1  0
  4  5  1  0
  5  6  1  0
  5  7  1  0
  4  8  1  0
  8  9  1  0
  8 10  1  0
M  END
>  <linear_selectivity>  (161) 
12

>  <denticity>  (161) 
1

>  <ligand_class>  (161) 
phosphine

$$$$
P(iPr)3_70C_xylene
     RDKit          2D

 10  9  0  0  0  0  0  0  0  0999 V2000
   -1.2990   -2.2500    0.0000 C   0  0  0  0  0  0  0  0  0  0  0  0
    0.0000   -1.5000    0.0000 C   0  0  0  0  0  0  0  0  0  0  0  0
    1.2990   -2.2500    0.0000 C   0  0  0  0  0  0  0  0  0  0  0  0
    0.0000    0.0000    0.0000 P   0  0  0  0  0  0  0  0  0  0  0  0
    1.2990    0.7500    0.0000 C   0  0  0  0  0  0  0  0  0  0  0  0
    1.2990    2.2500    0.0000 C   0  0  0  0  0  0  0  0  0  0  0  0
    2.5981    0.0000    0.0000 C   0  0  0  0  0  0  0  0  0  0  0  0
   -1.2990    0.7500    0.0000 C   0  0  0  0  0  0  0  0  0  0  0  0
   -1.2990    2.2500    0.0000 C   0  0  0  0  0  0  0  0  0  0  0  0
   -2.5981   -0.0000    0.0000 C   0  0  0  0  0  0  0  0  0  0  0  0
  1  2  1  0
  2  3  1  0
  2  4  1  0
  4  5  1  0
  5  6  1  0
  5  7  1  0
  4  8  1  0
  8  9  1  0
  8 10  1  0
M  END
>  <linear_selectivity>  (162) 
19

>  <denticity>  (162) 
1

>  <ligand_class>  (162) 
phosphine

$$$$
P(iPr)3_80C_toluene
     RDKit          2D

 10  9  0  0  0  0  0  0  0  0999 V2000
   -1.2990   -2.2500    0.0000 C   0  0  0  0  0  0  0  0  0  0  0  0
    0.0000   -1.5000    0.0000 C   0  0  0  0  0  0  0  0  0  0  0  0
    1.2990   -2.2500    0.0000 C   0  0  0  0  0  0  0  0  0  0  0  0
    0.0000    0.0000    0.0000 P   0  0  0  0  0  0  0  0  0  0  0  0
    1.2990    0.7500    0.0000 C   0  0  0  0  0  0  0  0  0  0  0  0
    1.2990    2.2500    0.0000 C   0  0  0  0  0  0  0  0  0  0  0  0
    2.5981    0.0000    0.0000 C   0  0  0  0  0  0  0  0  0  0  0  0
   -1.2990    0.7500    0.0000 C   0  0  0  0  0  0  0  0  0  0  0  0
   -1.2990    2.2500    0.0000 C   0  0  0  0  0  0  0  0  0  0  0  0
   -2.5981   -0.0000    0.0000 C   0  0  0  0  0  0  0  0  0  0  0  0
  1  2  1  0
  2  3  1  0
  2  4  1  0
  4  5  1  0
  5  6  1  0
  5  7  1  0
  4  8  1  0
  8  9  1  0
  8 10  1  0
M  END
>  <linear_selectivity>  (163) 
15

>  <denticity>  (163) 
1

>  <ligand_class>  (163) 
phosphine

$$$$
P(iPr)3_80C_THF
     RDKit          2D

 10  9  0  0  0  0  0  0  0  0999 V2000
   -1.2990   -2.2500    0.0000 C   0  0  0  0  0  0  0  0  0  0  0  0
    0.0000   -1.5000    0.0000 C   0  0  0  0  0  0  0  0  0  0  0  0
    1.2990   -2.2500    0.0000 C   0  0  0  0  0  0  0  0  0  0  0  0
    0.0000    0.0000    0.0000 P   0  0  0  0  0  0  0  0  0  0  0  0
    1.2990    0.7500    0.0000 C   0  0  0  0  0  0  0  0  0  0  0  0
    1.2990    2.2500    0.0000 C   0  0  0  0  0  0  0  0  0  0  0  0
    2.5981    0.0000    0.0000 C   0  0  0  0  0  0  0  0  0  0  0  0
   -1.2990    0.7500    0.0000 C   0  0  0  0  0  0  0  0  0  0  0  0
   -1.2990    2.2500    0.0000 C   0  0  0  0  0  0  0  0  0  0  0  0
   -2.5981   -0.0000    0.0000 C   0  0  0  0  0  0  0  0  0  0  0  0
  1  2  1  0
  2  3  1  0
  2  4  1  0
  4  5  1  0
  5  6  1  0
  5  7  1  0
  4  8  1  0
  8  9  1  0
  8 10  1  0
M  END
>  <linear_selectivity>  (164) 
16

>  <denticity>  (164) 
1

>  <ligand_class>  (164) 
phosphine

$$$$
P(iPr)3_80C_hexane
     RDKit          2D

 10  9  0  0  0  0  0  0  0  0999 V2000
   -1.2990   -2.2500    0.0000 C   0  0  0  0  0  0  0  0  0  0  0  0
    0.0000   -1.5000    0.0000 C   0  0  0  0  0  0  0  0  0  0  0  0
    1.2990   -2.2500    0.0000 C   0  0  0  0  0  0  0  0  0  0  0  0
    0.0000    0.0000    0.0000 P   0  0  0  0  0  0  0  0  0  0  0  0
    1.2990    0.7500    0.0000 C   0  0  0  0  0  0  0  0  0  0  0  0
    1.2990    2.2500    0.0000 C   0  0  0  0  0  0  0  0  0  0  0  0
    2.5981    0.0000    0.0000 C   0  0  0  0  0  0  0  0  0  0  0  0
   -1.2990    0.7500    0.0000 C   0  0  0  0  0  0  0  0  0  0  0  0
   -1.2990    2.2500    0.0000 C   0  0  0  0  0  0  0  0  0  0  0  0
   -2.5981   -0.0000    0.0000 C   0  0  0  0  0  0  0  0  0  0  0  0
  1  2  1  0
  2  3  1  0
  2  4  1  0
  4  5  1  0
  5  6  1  0
  5  7  1  0
  4  8  1  0
  8  9  1  0
  8 10  1  0
M  END
>  <linear_selectivity>  (165) 
17

>  <denticity>  (165) 
1

>  <ligand_class>  (165) 
phosphine

$$$$
P(iPr)3_80C_benzene
     RDKit          2D

 10  9  0  0  0  0  0  0  0  0999 V2000
   -1.2990   -2.2500    0.0000 C   0  0  0  0  0  0  0  0  0  0  0  0
    0.0000   -1.5000    0.0000 C   0  0  0  0  0  0  0  0  0  0  0  0
    1.2990   -2.2500    0.0000 C   0  0  0  0  0  0  0  0  0  0  0  0
    0.0000    0.0000    0.0000 P   0  0  0  0  0  0  0  0  0  0  0  0
    1.2990    0.7500    0.0000 C   0  0  0  0  0  0  0  0  0  0  0  0
    1.2990    2.2500    0.0000 C   0  0  0  0  0  0  0  0  0  0  0  0
    2.5981    0.0000    0.0000 C   0  0  0  0  0  0  0  0  0  0  0  0
   -1.2990    0.7500    0.0000 C   0  0  0  0  0  0  0  0  0  0  0  0
   -1.2990    2.2500    0.0000 C   0  0  0  0  0  0  0  0  0  0  0  0
   -2.5981   -0.0000    0.0000 C   0  0  0  0  0  0  0  0  0  0  0  0
  1  2  1  0
  2  3  1  0
  2  4  1  0
  4  5  1  0
  5  6  1  0
  5  7  1  0
  4  8  1  0
  8  9  1  0
  8 10  1  0
M  END
>  <linear_selectivity>  (166) 
18

>  <denticity>  (166) 
1

>  <ligand_class>  (166) 
phosphine

$$$$
P(iPr)3_90C_dioxane
     RDKit          2D

 10  9  0  0  0  0  0  0  0  0999 V2000
   -1.2990   -2.2500    0.0000 C   0  0  0  0  0  0  0  0  0  0  0  0
    0.0000   -1.5000    0.0000 C   0  0  0  0  0  0  0  0  0  0  0  0
    1.2990   -2.2500    0.0000 C   0  0  0  0  0  0  0  0  0  0  0  0
    0.0000    0.0000    0.0000 P   0  0  0  0  0  0  0  0  0  0  0  0
    1.2990    0.7500    0.0000 C   0  0  0  0  0  0  0  0  0  0  0  0
    1.2990    2.2500    0.0000 C   0  0  0  0  0  0  0  0  0  0  0  0
    2.5981    0.0000    0.0000 C   0  0  0  0  0  0  0  0  0  0  0  0
   -1.2990    0.7500    0.0000 C   0  0  0  0  0  0  0  0  0  0  0  0
   -1.2990    2.2500    0.0000 C   0  0  0  0  0  0  0  0  0  0  0  0
   -2.5981   -0.0000    0.0000 C   0  0  0  0  0  0  0  0  0  0  0  0
  1  2  1  0
  2  3  1  0
  2  4  1  0
  4  5  1  0
  5  6  1  0
  5  7  1  0
  4  8  1  0
  8  9  1  0
  8 10  1  0
M  END
>  <linear_selectivity>  (167) 
13

>  <denticity>  (167) 
1

>  <ligand_class>  (167) 
phosphine

$$$$
P(iPr)3_90C_hexane
     RDKit          2D

 10  9  0  0  0  0  0  0  0  0999 V2000
   -1.2990   -2.2500    0.0000 C   0  0  0  0  0  0  0  0  0  0  0  0
    0.0000   -1.5000    0.0000 C   0  0  0  0  0  0  0  0  0  0  0  0
    1.2990   -2.2500    0.0000 C   0  0  0  0  0  0  0  0  0  0  0  0
    0.0000    0.0000    0.0000 P   0  0  0  0  0  0  0  0  0  0  0  0
    1.2990    0.7500    0.0000 C   0  0  0  0  0  0  0  0  0  0  0  0
    1.2990    2.2500    0.0000 C   0  0  0  0  0  0  0  0  0  0  0  0
    2.5981    0.0000    0.0000 C   0  0  0  0  0  0  0  0  0  0  0  0
   -1.2990    0.7500    0.0000 C   0  0  0  0  0  0  0  0  0  0  0  0
   -1.2990    2.2500    0.0000 C   0  0  0  0  0  0  0  0  0  0  0  0
   -2.5981   -0.0000    0.0000 C   0  0  0  0  0  0  0  0  0  0  0  0
  1  2  1  0
  2  3  1  0
  2  4  1  0
  4  5  1  0
  5  6  1  0
  5  7  1  0
  4  8  1  0
  8  9  1  0
  8 10  1  0
M  END
>  <linear_selectivity>  (168) 
16

>  <denticity>  (168) 
1

>  <ligand_class>  (168) 
phosphine

$$$$
P(iPr)3_100C_THF
     RDKit          2D

 10  9  0  0  0  0  0  0  0  0999 V2000
   -1.2990   -2.2500    0.0000 C   0  0  0  0  0  0  0  0  0  0  0  0
    0.0000   -1.5000    0.0000 C   0  0  0  0  0  0  0  0  0  0  0  0
    1.2990   -2.2500    0.0000 C   0  0  0  0  0  0  0  0  0  0  0  0
    0.0000    0.0000    0.0000 P   0  0  0  0  0  0  0  0  0  0  0  0
    1.2990    0.7500    0.0000 C   0  0  0  0  0  0  0  0  0  0  0  0
    1.2990    2.2500    0.0000 C   0  0  0  0  0  0  0  0  0  0  0  0
    2.5981    0.0000    0.0000 C   0  0  0  0  0  0  0  0  0  0  0  0
   -1.2990    0.7500    0.0000 C   0  0  0  0  0  0  0  0  0  0  0  0
   -1.2990    2.2500    0.0000 C   0  0  0  0  0  0  0  0  0  0  0  0
   -2.5981   -0.0000    0.0000 C   0  0  0  0  0  0  0  0  0  0  0  0
  1  2  1  0
  2  3  1  0
  2  4  1  0
  4  5  1  0
  5  6  1  0
  5  7  1  0
  4  8  1  0
  8  9  1  0
  8 10  1  0
M  END
>  <linear_selectivity>  (169) 
13

>  <denticity>  (169) 
1

>  <ligand_class>  (169) 
phosphine

$$$$
P(iPr)3_100C_hexane
     RDKit          2D

 10  9  0  0  0  0  0  0  0  0999 V2000
   -1.2990   -2.2500    0.0000 C   0  0  0  0  0  0  0  0  0  0  0  0
    0.0000   -1.5000    0.0000 C   0  0  0  0  0  0  0  0  0  0  0  0
    1.2990   -2.2500    0.0000 C   0  0  0  0  0  0  0  0  0  0  0  0
    0.0000    0.0000    0.0000 P   0  0  0  0  0  0  0  0  0  0  0  0
    1.2990    0.7500    0.0000 C   0  0  0  0  0  0  0  0  0  0  0  0
    1.2990    2.2500    0.0000 C   0  0  0  0  0  0  0  0  0  0  0  0
    2.5981    0.0000    0.0000 C   0  0  0  0  0  0  0  0  0  0  0  0
   -1.2990    0.7500    0.0000 C   0  0  0  0  0  0  0  0  0  0  0  0
   -1.2990    2.2500    0.0000 C   0  0  0  0  0  0  0  0  0  0  0  0
   -2.5981   -0.0000    0.0000 C   0  0  0  0  0  0  0  0  0  0  0  0
  1  2  1  0
  2  3  1  0
  2  4  1  0
  4  5  1  0
  5  6  1  0
  5  7  1  0
  4  8  1  0
  8  9  1  0
  8 10  1  0
M  END
>  <linear_selectivity>  (170) 
16

>  <denticity>  (170) 
1

>  <ligand_class>  (170) 
phosphine

$$$$
P(iPr)3_100C_xylene
     RDKit          2D

 10  9  0  0  0  0  0  0  0  0999 V2000
   -1.2990   -2.2500    0.0000 C   0  0  0  0  0  0  0  0  0  0  0  0
    0.0000   -1.5000    0.0000 C   0  0  0  0  0  0  0  0  0  0  0  0
    1.2990   -2.2500    0.0000 C   0  0  0  0  0  0  0  0  0  0  0  0
    0.0000    0.0000    0.0000 P   0  0  0  0  0  0  0  0  0  0  0  0
    1.2990    0.7500    0.0000 C   0  0  0  0  0  0  0  0  0  0  0  0
    1.2990    2.2500    0.0000 C   0  0  0  0  0  0  0  0  0  0  0  0
    2.5981    0.0000    0.0000 C   0  0  0  0  0  0  0  0  0  0  0  0
   -1.2990    0.7500    0.0000 C   0  0  0  0  0  0  0  0  0  0  0  0
   -1.2990    2.2500    0.0000 C   0  0  0  0  0  0  0  0  0  0  0  0
   -2.5981   -0.0000    0.0000 C   0  0  0  0  0  0  0  0  0  0  0  0
  1  2  1  0
  2  3  1  0
  2  4  1  0
  4  5  1  0
  5  6  1  0
  5  7  1  0
  4  8  1  0
  8  9  1  0
  8 10  1  0
M  END
>  <linear_selectivity>  (171) 
16

>  <denticity>  (171) 
1

>  <ligand_class>  (171) 
phosphine

$$$$
P(iPr)3_110C_toluene
     RDKit          2D

 10  9  0  0  0  0  0  0  0  0999 V2000
   -1.2990   -2.2500    0.0000 C   0  0  0  0  0  0  0  0  0  0  0  0
    0.0000   -1.5000    0.0000 C   0  0  0  0  0  0  0  0  0  0  0  0
    1.2990   -2.2500    0.0000 C   0  0  0  0  0  0  0  0  0  0  0  0
    0.0000    0.0000    0.0000 P   0  0  0  0  0  0  0  0  0  0  0  0
    1.2990    0.7500    0.0000 C   0  0  0  0  0  0  0  0  0  0  0  0
    1.2990    2.2500    0.0000 C   0  0  0  0  0  0  0  0  0  0  0  0
    2.5981    0.0000    0.0000 C   0  0  0  0  0  0  0  0  0  0  0  0
   -1.2990    0.7500    0.0000 C   0  0  0  0  0  0  0  0  0  0  0  0
   -1.2990    2.2500    0.0000 C   0  0  0  0  0  0  0  0  0  0  0  0
   -2.5981   -0.0000    0.0000 C   0  0  0  0  0  0  0  0  0  0  0  0
  1  2  1  0
  2  3  1  0
  2  4  1  0
  4  5  1  0
  5  6  1  0
  5  7  1  0
  4  8  1  0
  8  9  1  0
  8 10  1  0
M  END
>  <linear_selectivity>  (172) 
13

>  <denticity>  (172) 
1

>  <ligand_class>  (172) 
phosphine

$$$$
P(iPr)3_110C_THF
     RDKit          2D

 10  9  0  0  0  0  0  0  0  0999 V2000
   -1.2990   -2.2500    0.0000 C   0  0  0  0  0  0  0  0  0  0  0  0
    0.0000   -1.5000    0.0000 C   0  0  0  0  0  0  0  0  0  0  0  0
    1.2990   -2.2500    0.0000 C   0  0  0  0  0  0  0  0  0  0  0  0
    0.0000    0.0000    0.0000 P   0  0  0  0  0  0  0  0  0  0  0  0
    1.2990    0.7500    0.0000 C   0  0  0  0  0  0  0  0  0  0  0  0
    1.2990    2.2500    0.0000 C   0  0  0  0  0  0  0  0  0  0  0  0
    2.5981    0.0000    0.0000 C   0  0  0  0  0  0  0  0  0  0  0  0
   -1.2990    0.7500    0.0000 C   0  0  0  0  0  0  0  0  0  0  0  0
   -1.2990    2.2500    0.0000 C   0  0  0  0  0  0  0  0  0  0  0  0
   -2.5981   -0.0000    0.0000 C   0  0  0  0  0  0  0  0  0  0  0  0
  1  2  1  0
  2  3  1  0
  2  4  1  0
  4  5  1  0
  5  6  1  0
  5  7  1  0
  4  8  1  0
  8  9  1  0
  8 10  1  0
M  END
>  <linear_selectivity>  (173) 
15

>  <denticity>  (173) 
1

>  <ligand_class>  (173) 
phosphine

$$$$
P(iPr)3_110C_hexane
     RDKit          2D

 10  9  0  0  0  0  0  0  0  0999 V2000
   -1.2990   -2.2500    0.0000 C   0  0  0  0  0  0  0  0  0  0  0  0
    0.0000   -1.5000    0.0000 C   0  0  0  0  0  0  0  0  0  0  0  0
    1.2990   -2.2500    0.0000 C   0  0  0  0  0  0  0  0  0  0  0  0
    0.0000    0.0000    0.0000 P   0  0  0  0  0  0  0  0  0  0  0  0
    1.2990    0.7500    0.0000 C   0  0  0  0  0  0  0  0  0  0  0  0
    1.2990    2.2500    0.0000 C   0  0  0  0  0  0  0  0  0  0  0  0
    2.5981    0.0000    0.0000 C   0  0  0  0  0  0  0  0  0  0  0  0
   -1.2990    0.7500    0.0000 C   0  0  0  0  0  0  0  0  0  0  0  0
   -1.2990    2.2500    0.0000 C   0  0  0  0  0  0  0  0  0  0  0  0
   -2.5981   -0.0000    0.0000 C   0  0  0  0  0  0  0  0  0  0  0  0
  1  2  1  0
  2  3  1  0
  2  4  1  0
  4  5  1  0
  5  6  1  0
  5  7  1  0
  4  8  1  0
  8  9  1  0
  8 10  1  0
M  END
>  <linear_selectivity>  (174) 
13

>  <denticity>  (174) 
1

>  <ligand_class>  (174) 
phosphine

$$$$
P(iPr)3_110C_xylene
     RDKit          2D

 10  9  0  0  0  0  0  0  0  0999 V2000
   -1.2990   -2.2500    0.0000 C   0  0  0  0  0  0  0  0  0  0  0  0
    0.0000   -1.5000    0.0000 C   0  0  0  0  0  0  0  0  0  0  0  0
    1.2990   -2.2500    0.0000 C   0  0  0  0  0  0  0  0  0  0  0  0
    0.0000    0.0000    0.0000 P   0  0  0  0  0  0  0  0  0  0  0  0
    1.2990    0.7500    0.0000 C   0  0  0  0  0  0  0  0  0  0  0  0
    1.2990    2.2500    0.0000 C   0  0  0  0  0  0  0  0  0  0  0  0
    2.5981    0.0000    0.0000 C   0  0  0  0  0  0  0  0  0  0  0  0
   -1.2990    0.7500    0.0000 C   0  0  0  0  0  0  0  0  0  0  0  0
   -1.2990    2.2500    0.0000 C   0  0  0  0  0  0  0  0  0  0  0  0
   -2.5981   -0.0000    0.0000 C   0  0  0  0  0  0  0  0  0  0  0  0
  1  2  1  0
  2  3  1  0
  2  4  1  0
  4  5  1  0
  5  6  1  0
  5  7  1  0
  4  8  1  0
  8  9  1  0
  8 10  1  0
M  END
>  <linear_selectivity>  (175) 
12

>  <denticity>  (175) 
1

>  <ligand_class>  (175) 
phosphine

$$$$
P(iPr)3_120C_toluene
     RDKit          2D

 10  9  0  0  0  0  0  0  0  0999 V2000
   -1.2990   -2.2500    0.0000 C   0  0  0  0  0  0  0  0  0  0  0  0
    0.0000   -1.5000    0.0000 C   0  0  0  0  0  0  0  0  0  0  0  0
    1.2990   -2.2500    0.0000 C   0  0  0  0  0  0  0  0  0  0  0  0
    0.0000    0.0000    0.0000 P   0  0  0  0  0  0  0  0  0  0  0  0
    1.2990    0.7500    0.0000 C   0  0  0  0  0  0  0  0  0  0  0  0
    1.2990    2.2500    0.0000 C   0  0  0  0  0  0  0  0  0  0  0  0
    2.5981    0.0000    0.0000 C   0  0  0  0  0  0  0  0  0  0  0  0
   -1.2990    0.7500    0.0000 C   0  0  0  0  0  0  0  0  0  0  0  0
   -1.2990    2.2500    0.0000 C   0  0  0  0  0  0  0  0  0  0  0  0
   -2.5981   -0.0000    0.0000 C   0  0  0  0  0  0  0  0  0  0  0  0
  1  2  1  0
  2  3  1  0
  2  4  1  0
  4  5  1  0
  5  6  1  0
  5  7  1  0
  4  8  1  0
  8  9  1  0
  8 10  1  0
M  END
>  <linear_selectivity>  (176) 
15

>  <denticity>  (176) 
1

>  <ligand_class>  (176) 
phosphine

$$$$
P(iPr)3_120C_THF
     RDKit          2D

 10  9  0  0  0  0  0  0  0  0999 V2000
   -1.2990   -2.2500    0.0000 C   0  0  0  0  0  0  0  0  0  0  0  0
    0.0000   -1.5000    0.0000 C   0  0  0  0  0  0  0  0  0  0  0  0
    1.2990   -2.2500    0.0000 C   0  0  0  0  0  0  0  0  0  0  0  0
    0.0000    0.0000    0.0000 P   0  0  0  0  0  0  0  0  0  0  0  0
    1.2990    0.7500    0.0000 C   0  0  0  0  0  0  0  0  0  0  0  0
    1.2990    2.2500    0.0000 C   0  0  0  0  0  0  0  0  0  0  0  0
    2.5981    0.0000    0.0000 C   0  0  0  0  0  0  0  0  0  0  0  0
   -1.2990    0.7500    0.0000 C   0  0  0  0  0  0  0  0  0  0  0  0
   -1.2990    2.2500    0.0000 C   0  0  0  0  0  0  0  0  0  0  0  0
   -2.5981   -0.0000    0.0000 C   0  0  0  0  0  0  0  0  0  0  0  0
  1  2  1  0
  2  3  1  0
  2  4  1  0
  4  5  1  0
  5  6  1  0
  5  7  1  0
  4  8  1  0
  8  9  1  0
  8 10  1  0
M  END
>  <linear_selectivity>  (177) 
14

>  <denticity>  (177) 
1

>  <ligand_class>  (177) 
phosphine

$$$$
P(iPr)3_120C_dioxane
     RDKit          2D

 10  9  0  0  0  0  0  0  0  0999 V2000
   -1.2990   -2.2500    0.0000 C   0  0  0  0  0  0  0  0  0  0  0  0
    0.0000   -1.5000    0.0000 C   0  0  0  0  0  0  0  0  0  0  0  0
    1.2990   -2.2500    0.0000 C   0  0  0  0  0  0  0  0  0  0  0  0
    0.0000    0.0000    0.0000 P   0  0  0  0  0  0  0  0  0  0  0  0
    1.2990    0.7500    0.0000 C   0  0  0  0  0  0  0  0  0  0  0  0
    1.2990    2.2500    0.0000 C   0  0  0  0  0  0  0  0  0  0  0  0
    2.5981    0.0000    0.0000 C   0  0  0  0  0  0  0  0  0  0  0  0
   -1.2990    0.7500    0.0000 C   0  0  0  0  0  0  0  0  0  0  0  0
   -1.2990    2.2500    0.0000 C   0  0  0  0  0  0  0  0  0  0  0  0
   -2.5981   -0.0000    0.0000 C   0  0  0  0  0  0  0  0  0  0  0  0
  1  2  1  0
  2  3  1  0
  2  4  1  0
  4  5  1  0
  5  6  1  0
  5  7  1  0
  4  8  1  0
  8  9  1  0
  8 10  1  0
M  END
>  <linear_selectivity>  (178) 
15

>  <denticity>  (178) 
1

>  <ligand_class>  (178) 
phosphine

$$$$
P(iPr)3_120C_hexane
     RDKit          2D

 10  9  0  0  0  0  0  0  0  0999 V2000
   -1.2990   -2.2500    0.0000 C   0  0  0  0  0  0  0  0  0  0  0  0
    0.0000   -1.5000    0.0000 C   0  0  0  0  0  0  0  0  0  0  0  0
    1.2990   -2.2500    0.0000 C   0  0  0  0  0  0  0  0  0  0  0  0
    0.0000    0.0000    0.0000 P   0  0  0  0  0  0  0  0  0  0  0  0
    1.2990    0.7500    0.0000 C   0  0  0  0  0  0  0  0  0  0  0  0
    1.2990    2.2500    0.0000 C   0  0  0  0  0  0  0  0  0  0  0  0
    2.5981    0.0000    0.0000 C   0  0  0  0  0  0  0  0  0  0  0  0
   -1.2990    0.7500    0.0000 C   0  0  0  0  0  0  0  0  0  0  0  0
   -1.2990    2.2500    0.0000 C   0  0  0  0  0  0  0  0  0  0  0  0
   -2.5981   -0.0000    0.0000 C   0  0  0  0  0  0  0  0  0  0  0  0
  1  2  1  0
  2  3  1  0
  2  4  1  0
  4  5  1  0
  5  6  1  0
  5  7  1  0
  4  8  1  0
  8  9  1  0
  8 10  1  0
M  END
>  <linear_selectivity>  (179) 
18

>  <denticity>  (179) 
1

>  <ligand_class>  (179) 
phosphine

$$$$
P(iPr)3_120C_benzene
     RDKit          2D

 10  9  0  0  0  0  0  0  0  0999 V2000
   -1.2990   -2.2500    0.0000 C   0  0  0  0  0  0  0  0  0  0  0  0
    0.0000   -1.5000    0.0000 C   0  0  0  0  0  0  0  0  0  0  0  0
    1.2990   -2.2500    0.0000 C   0  0  0  0  0  0  0  0  0  0  0  0
    0.0000    0.0000    0.0000 P   0  0  0  0  0  0  0  0  0  0  0  0
    1.2990    0.7500    0.0000 C   0  0  0  0  0  0  0  0  0  0  0  0
    1.2990    2.2500    0.0000 C   0  0  0  0  0  0  0  0  0  0  0  0
    2.5981    0.0000    0.0000 C   0  0  0  0  0  0  0  0  0  0  0  0
   -1.2990    0.7500    0.0000 C   0  0  0  0  0  0  0  0  0  0  0  0
   -1.2990    2.2500    0.0000 C   0  0  0  0  0  0  0  0  0  0  0  0
   -2.5981   -0.0000    0.0000 C   0  0  0  0  0  0  0  0  0  0  0  0
  1  2  1  0
  2  3  1  0
  2  4  1  0
  4  5  1  0
  5  6  1  0
  5  7  1  0
  4  8  1  0
  8  9  1  0
  8 10  1  0
M  END
>  <linear_selectivity>  (180) 
12

>  <denticity>  (180) 
1

>  <ligand_class>  (180) 
phosphine

$$$$
P(iPr)3_120C_xylene
     RDKit          2D

 10  9  0  0  0  0  0  0  0  0999 V2000
   -1.2990   -2.2500    0.0000 C   0  0  0  0  0  0  0  0  0  0  0  0
    0.0000   -1.5000    0.0000 C   0  0  0  0  0  0  0  0  0  0  0  0
    1.2990   -2.2500    0.0000 C   0  0  0  0  0  0  0  0  0  0  0  0
    0.0000    0.0000    0.0000 P   0  0  0  0  0  0  0  0  0  0  0  0
    1.2990    0.7500    0.0000 C   0  0  0  0  0  0  0  0  0  0  0  0
    1.2990    2.2500    0.0000 C   0  0  0  0  0  0  0  0  0  0  0  0
    2.5981    0.0000    0.0000 C   0  0  0  0  0  0  0  0  0  0  0  0
   -1.2990    0.7500    0.0000 C   0  0  0  0  0  0  0  0  0  0  0  0
   -1.2990    2.2500    0.0000 C   0  0  0  0  0  0  0  0  0  0  0  0
   -2.5981   -0.0000    0.0000 C   0  0  0  0  0  0  0  0  0  0  0  0
  1  2  1  0
  2  3  1  0
  2  4  1  0
  4  5  1  0
  5  6  1  0
  5  7  1  0
  4  8  1  0
  8  9  1  0
  8 10  1  0
M  END
>  <linear_selectivity>  (181) 
14

>  <denticity>  (181) 
1

>  <ligand_class>  (181) 
phosphine

$$$$
P(iPr)3_130C_toluene
     RDKit          2D

 10  9  0  0  0  0  0  0  0  0999 V2000
   -1.2990   -2.2500    0.0000 C   0  0  0  0  0  0  0  0  0  0  0  0
    0.0000   -1.5000    0.0000 C   0  0  0  0  0  0  0  0  0  0  0  0
    1.2990   -2.2500    0.0000 C   0  0  0  0  0  0  0  0  0  0  0  0
    0.0000    0.0000    0.0000 P   0  0  0  0  0  0  0  0  0  0  0  0
    1.2990    0.7500    0.0000 C   0  0  0  0  0  0  0  0  0  0  0  0
    1.2990    2.2500    0.0000 C   0  0  0  0  0  0  0  0  0  0  0  0
    2.5981    0.0000    0.0000 C   0  0  0  0  0  0  0  0  0  0  0  0
   -1.2990    0.7500    0.0000 C   0  0  0  0  0  0  0  0  0  0  0  0
   -1.2990    2.2500    0.0000 C   0  0  0  0  0  0  0  0  0  0  0  0
   -2.5981   -0.0000    0.0000 C   0  0  0  0  0  0  0  0  0  0  0  0
  1  2  1  0
  2  3  1  0
  2  4  1  0
  4  5  1  0
  5  6  1  0
  5  7  1  0
  4  8  1  0
  8  9  1  0
  8 10  1  0
M  END
>  <linear_selectivity>  (182) 
14

>  <denticity>  (182) 
1

>  <ligand_class>  (182) 
phosphine

$$$$
P(iPr)3_130C_THF
     RDKit          2D

 10  9  0  0  0  0  0  0  0  0999 V2000
   -1.2990   -2.2500    0.0000 C   0  0  0  0  0  0  0  0  0  0  0  0
    0.0000   -1.5000    0.0000 C   0  0  0  0  0  0  0  0  0  0  0  0
    1.2990   -2.2500    0.0000 C   0  0  0  0  0  0  0  0  0  0  0  0
    0.0000    0.0000    0.0000 P   0  0  0  0  0  0  0  0  0  0  0  0
    1.2990    0.7500    0.0000 C   0  0  0  0  0  0  0  0  0  0  0  0
    1.2990    2.2500    0.0000 C   0  0  0  0  0  0  0  0  0  0  0  0
    2.5981    0.0000    0.0000 C   0  0  0  0  0  0  0  0  0  0  0  0
   -1.2990    0.7500    0.0000 C   0  0  0  0  0  0  0  0  0  0  0  0
   -1.2990    2.2500    0.0000 C   0  0  0  0  0  0  0  0  0  0  0  0
   -2.5981   -0.0000    0.0000 C   0  0  0  0  0  0  0  0  0  0  0  0
  1  2  1  0
  2  3  1  0
  2  4  1  0
  4  5  1  0
  5  6  1  0
  5  7  1  0
  4  8  1  0
  8  9  1  0
  8 10  1  0
M  END
>  <linear_selectivity>  (183) 
12

>  <denticity>  (183) 
1

>  <ligand_class>  (183) 
phosphine

$$$$
P(iPr)3_130C_hexane
     RDKit          2D

 10  9  0  0  0  0  0  0  0  0999 V2000
   -1.2990   -2.2500    0.0000 C   0  0  0  0  0  0  0  0  0  0  0  0
    0.0000   -1.5000    0.0000 C   0  0  0  0  0  0  0  0  0  0  0  0
    1.2990   -2.2500    0.0000 C   0  0  0  0  0  0  0  0  0  0  0  0
    0.0000    0.0000    0.0000 P   0  0  0  0  0  0  0  0  0  0  0  0
    1.2990    0.7500    0.0000 C   0  0  0  0  0  0  0  0  0  0  0  0
    1.2990    2.2500    0.0000 C   0  0  0  0  0  0  0  0  0  0  0  0
    2.5981    0.0000    0.0000 C   0  0  0  0  0  0  0  0  0  0  0  0
   -1.2990    0.7500    0.0000 C   0  0  0  0  0  0  0  0  0  0  0  0
   -1.2990    2.2500    0.0000 C   0  0  0  0  0  0  0  0  0  0  0  0
   -2.5981   -0.0000    0.0000 C   0  0  0  0  0  0  0  0  0  0  0  0
  1  2  1  0
  2  3  1  0
  2  4  1  0
  4  5  1  0
  5  6  1  0
  5  7  1  0
  4  8  1  0
  8  9  1  0
  8 10  1  0
M  END
>  <linear_selectivity>  (184) 
12

>  <denticity>  (184) 
1

>  <ligand_class>  (184) 
phosphine

$$$$
P(iPr)3_130C_benzene
     RDKit          2D

 10  9  0  0  0  0  0  0  0  0999 V2000
   -1.2990   -2.2500    0.0000 C   0  0  0  0  0  0  0  0  0  0  0  0
    0.0000   -1.5000    0.0000 C   0  0  0  0  0  0  0  0  0  0  0  0
    1.2990   -2.2500    0.0000 C   0  0  0  0  0  0  0  0  0  0  0  0
    0.0000    0.0000    0.0000 P   0  0  0  0  0  0  0  0  0  0  0  0
    1.2990    0.7500    0.0000 C   0  0  0  0  0  0  0  0  0  0  0  0
    1.2990    2.2500    0.0000 C   0  0  0  0  0  0  0  0  0  0  0  0
    2.5981    0.0000    0.0000 C   0  0  0  0  0  0  0  0  0  0  0  0
   -1.2990    0.7500    0.0000 C   0  0  0  0  0  0  0  0  0  0  0  0
   -1.2990    2.2500    0.0000 C   0  0  0  0  0  0  0  0  0  0  0  0
   -2.5981   -0.0000    0.0000 C   0  0  0  0  0  0  0  0  0  0  0  0
  1  2  1  0
  2  3  1  0
  2  4  1  0
  4  5  1  0
  5  6  1  0
  5  7  1  0
  4  8  1  0
  8  9  1  0
  8 10  1  0
M  END
>  <linear_selectivity>  (185) 
13

>  <denticity>  (185) 
1

>  <ligand_class>  (185) 
phosphine

$$$$
P(iPr)3_130C_xylene
     RDKit          2D

 10  9  0  0  0  0  0  0  0  0999 V2000
   -1.2990   -2.2500    0.0000 C   0  0  0  0  0  0  0  0  0  0  0  0
    0.0000   -1.5000    0.0000 C   0  0  0  0  0  0  0  0  0  0  0  0
    1.2990   -2.2500    0.0000 C   0  0  0  0  0  0  0  0  0  0  0  0
    0.0000    0.0000    0.0000 P   0  0  0  0  0  0  0  0  0  0  0  0
    1.2990    0.7500    0.0000 C   0  0  0  0  0  0  0  0  0  0  0  0
    1.2990    2.2500    0.0000 C   0  0  0  0  0  0  0  0  0  0  0  0
    2.5981    0.0000    0.0000 C   0  0  0  0  0  0  0  0  0  0  0  0
   -1.2990    0.7500    0.0000 C   0  0  0  0  0  0  0  0  0  0  0  0
   -1.2990    2.2500    0.0000 C   0  0  0  0  0  0  0  0  0  0  0  0
   -2.5981   -0.0000    0.0000 C   0  0  0  0  0  0  0  0  0  0  0  0
  1  2  1  0
  2  3  1  0
  2  4  1  0
  4  5  1  0
  5  6  1  0
  5  7  1  0
  4  8  1  0
  8  9  1  0
  8 10  1  0
M  END
>  <linear_selectivity>  (186) 
16

>  <denticity>  (186) 
1

>  <ligand_class>  (186) 
phosphine

$$$$
P(tBu)3
     RDKit          2D

 13 12  0  0  0  0  0  0  0  0999 V2000
   -0.5490   -2.0490    0.0000 C   0  0  0  0  0  0  0  0  0  0  0  0
    0.7500   -1.2990    0.0000 C   0  0  0  0  0  0  0  0  0  0  0  0
    2.0490   -0.5490    0.0000 C   0  0  0  0  0  0  0  0  0  0  0  0
    1.5000   -2.5981    0.0000 C   0  0  0  0  0  0  0  0  0  0  0  0
    0.0000    0.0000    0.0000 P   0  0  0  0  0  0  0  0  0  0  0  0
    0.7500    1.2990    0.0000 C   0  0  0  0  0  0  0  0  0  0  0  0
   -0.5490    2.0490    0.0000 C   0  0  0  0  0  0  0  0  0  0  0  0
    2.0490    0.5490    0.0000 C   0  0  0  0  0  0  0  0  0  0  0  0
    1.5000    2.5981    0.0000 C   0  0  0  0  0  0  0  0  0  0  0  0
   -1.5000    0.0000    0.0000 C   0  0  0  0  0  0  0  0  0  0  0  0
   -1.5000    1.5000    0.0000 C   0  0  0  0  0  0  0  0  0  0  0  0
   -1.5000   -1.5000    0.0000 C   0  0  0  0  0  0  0  0  0  0  0  0
   -3.0000    0.0000    0.0000 C   0  0  0  0  0  0  0  0  0  0  0  0
  1  2  1  0
  2  3  1  0
  2  4  1  0
  2  5  1  0
  5  6  1  0
  6  7  1  0
  6  8  1  0
  6  9  1  0
  5 10  1  0
 10 11  1  0
 10 12  1  0
 10 13  1  0
M  END
>  <linear_selectivity>  (187) 
12

>  <denticity>  (187) 
1

>  <ligand_class>  (187) 
phosphine

$$$$
P(tBu)3_70C_dioxane
     RDKit          2D

 13 12  0  0  0  0  0  0  0  0999 V2000
   -0.5490   -2.0490    0.0000 C   0  0  0  0  0  0  0  0  0  0  0  0
    0.7500   -1.2990    0.0000 C   0  0  0  0  0  0  0  0  0  0  0  0
    2.0490   -0.5490    0.0000 C   0  0  0  0  0  0  0  0  0  0  0  0
    1.5000   -2.5981    0.0000 C   0  0  0  0  0  0  0  0  0  0  0  0
    0.0000    0.0000    0.0000 P   0  0  0  0  0  0  0  0  0  0  0  0
    0.7500    1.2990    0.0000 C   0  0  0  0  0  0  0  0  0  0  0  0
   -0.5490    2.0490    0.0000 C   0  0  0  0  0  0  0  0  0  0  0  0
    2.0490    0.5490    0.0000 C   0  0  0  0  0  0  0  0  0  0  0  0
    1.5000    2.5981    0.0000 C   0  0  0  0  0  0  0  0  0  0  0  0
   -1.5000    0.0000    0.0000 C   0  0  0  0  0  0  0  0  0  0  0  0
   -1.5000    1.5000    0.0000 C   0  0  0  0  0  0  0  0  0  0  0  0
   -1.5000   -1.5000    0.0000 C   0  0  0  0  0  0  0  0  0  0  0  0
   -3.0000    0.0000    0.0000 C   0  0  0  0  0  0  0  0  0  0  0  0
  1  2  1  0
  2  3  1  0
  2  4  1  0
  2  5  1  0
  5  6  1  0
  6  7  1  0
  6  8  1  0
  6  9  1  0
  5 10  1  0
 10 11  1  0
 10 12  1  0
 10 13  1  0
M  END
>  <linear_selectivity>  (188) 
14

>  <denticity>  (188) 
1

>  <ligand_class>  (188) 
phosphine

$$$$
P(tBu)3_70C_hexane
     RDKit          2D

 13 12  0  0  0  0  0  0  0  0999 V2000
   -0.5490   -2.0490    0.0000 C   0  0  0  0  0  0  0  0  0  0  0  0
    0.7500   -1.2990    0.0000 C   0  0  0  0  0  0  0  0  0  0  0  0
    2.0490   -0.5490    0.0000 C   0  0  0  0  0  0  0  0  0  0  0  0
    1.5000   -2.5981    0.0000 C   0  0  0  0  0  0  0  0  0  0  0  0
    0.0000    0.0000    0.0000 P   0  0  0  0  0  0  0  0  0  0  0  0
    0.7500    1.2990    0.0000 C   0  0  0  0  0  0  0  0  0  0  0  0
   -0.5490    2.0490    0.0000 C   0  0  0  0  0  0  0  0  0  0  0  0
    2.0490    0.5490    0.0000 C   0  0  0  0  0  0  0  0  0  0  0  0
    1.5000    2.5981    0.0000 C   0  0  0  0  0  0  0  0  0  0  0  0
   -1.5000    0.0000    0.0000 C   0  0  0  0  0  0  0  0  0  0  0  0
   -1.5000    1.5000    0.0000 C   0  0  0  0  0  0  0  0  0  0  0  0
   -1.5000   -1.5000    0.0000 C   0  0  0  0  0  0  0  0  0  0  0  0
   -3.0000    0.0000    0.0000 C   0  0  0  0  0  0  0  0  0  0  0  0
  1  2  1  0
  2  3  1  0
  2  4  1  0
  2  5  1  0
  5  6  1  0
  6  7  1  0
  6  8  1  0
  6  9  1  0
  5 10  1  0
 10 11  1  0
 10 12  1  0
 10 13  1  0
M  END
>  <linear_selectivity>  (189) 
16

>  <denticity>  (189) 
1

>  <ligand_class>  (189) 
phosphine

$$$$
P(tBu)3_70C_benzene
     RDKit          2D

 13 12  0  0  0  0  0  0  0  0999 V2000
   -0.5490   -2.0490    0.0000 C   0  0  0  0  0  0  0  0  0  0  0  0
    0.7500   -1.2990    0.0000 C   0  0  0  0  0  0  0  0  0  0  0  0
    2.0490   -0.5490    0.0000 C   0  0  0  0  0  0  0  0  0  0  0  0
    1.5000   -2.5981    0.0000 C   0  0  0  0  0  0  0  0  0  0  0  0
    0.0000    0.0000    0.0000 P   0  0  0  0  0  0  0  0  0  0  0  0
    0.7500    1.2990    0.0000 C   0  0  0  0  0  0  0  0  0  0  0  0
   -0.5490    2.0490    0.0000 C   0  0  0  0  0  0  0  0  0  0  0  0
    2.0490    0.5490    0.0000 C   0  0  0  0  0  0  0  0  0  0  0  0
    1.5000    2.5981    0.0000 C   0  0  0  0  0  0  0  0  0  0  0  0
   -1.5000    0.0000    0.0000 C   0  0  0  0  0  0  0  0  0  0  0  0
   -1.5000    1.5000    0.0000 C   0  0  0  0  0  0  0  0  0  0  0  0
   -1.5000   -1.5000    0.0000 C   0  0  0  0  0  0  0  0  0  0  0  0
   -3.0000    0.0000    0.0000 C   0  0  0  0  0  0  0  0  0  0  0  0
  1  2  1  0
  2  3  1  0
  2  4  1  0
  2  5  1  0
  5  6  1  0
  6  7  1  0
  6  8  1  0
  6  9  1  0
  5 10  1  0
 10 11  1  0
 10 12  1  0
 10 13  1  0
M  END
>  <linear_selectivity>  (190) 
15

>  <denticity>  (190) 
1

>  <ligand_class>  (190) 
phosphine

$$$$
P(tBu)3_80C_toluene
     RDKit          2D

 13 12  0  0  0  0  0  0  0  0999 V2000
   -0.5490   -2.0490    0.0000 C   0  0  0  0  0  0  0  0  0  0  0  0
    0.7500   -1.2990    0.0000 C   0  0  0  0  0  0  0  0  0  0  0  0
    2.0490   -0.5490    0.0000 C   0  0  0  0  0  0  0  0  0  0  0  0
    1.5000   -2.5981    0.0000 C   0  0  0  0  0  0  0  0  0  0  0  0
    0.0000    0.0000    0.0000 P   0  0  0  0  0  0  0  0  0  0  0  0
    0.7500    1.2990    0.0000 C   0  0  0  0  0  0  0  0  0  0  0  0
   -0.5490    2.0490    0.0000 C   0  0  0  0  0  0  0  0  0  0  0  0
    2.0490    0.5490    0.0000 C   0  0  0  0  0  0  0  0  0  0  0  0
    1.5000    2.5981    0.0000 C   0  0  0  0  0  0  0  0  0  0  0  0
   -1.5000    0.0000    0.0000 C   0  0  0  0  0  0  0  0  0  0  0  0
   -1.5000    1.5000    0.0000 C   0  0  0  0  0  0  0  0  0  0  0  0
   -1.5000   -1.5000    0.0000 C   0  0  0  0  0  0  0  0  0  0  0  0
   -3.0000    0.0000    0.0000 C   0  0  0  0  0  0  0  0  0  0  0  0
  1  2  1  0
  2  3  1  0
  2  4  1  0
  2  5  1  0
  5  6  1  0
  6  7  1  0
  6  8  1  0
  6  9  1  0
  5 10  1  0
 10 11  1  0
 10 12  1  0
 10 13  1  0
M  END
>  <linear_selectivity>  (191) 
13

>  <denticity>  (191) 
1

>  <ligand_class>  (191) 
phosphine

$$$$
P(tBu)3_80C_dioxane
     RDKit          2D

 13 12  0  0  0  0  0  0  0  0999 V2000
   -0.5490   -2.0490    0.0000 C   0  0  0  0  0  0  0  0  0  0  0  0
    0.7500   -1.2990    0.0000 C   0  0  0  0  0  0  0  0  0  0  0  0
    2.0490   -0.5490    0.0000 C   0  0  0  0  0  0  0  0  0  0  0  0
    1.5000   -2.5981    0.0000 C   0  0  0  0  0  0  0  0  0  0  0  0
    0.0000    0.0000    0.0000 P   0  0  0  0  0  0  0  0  0  0  0  0
    0.7500    1.2990    0.0000 C   0  0  0  0  0  0  0  0  0  0  0  0
   -0.5490    2.0490    0.0000 C   0  0  0  0  0  0  0  0  0  0  0  0
    2.0490    0.5490    0.0000 C   0  0  0  0  0  0  0  0  0  0  0  0
    1.5000    2.5981    0.0000 C   0  0  0  0  0  0  0  0  0  0  0  0
   -1.5000    0.0000    0.0000 C   0  0  0  0  0  0  0  0  0  0  0  0
   -1.5000    1.5000    0.0000 C   0  0  0  0  0  0  0  0  0  0  0  0
   -1.5000   -1.5000    0.0000 C   0  0  0  0  0  0  0  0  0  0  0  0
   -3.0000    0.0000    0.0000 C   0  0  0  0  0  0  0  0  0  0  0  0
  1  2  1  0
  2  3  1  0
  2  4  1  0
  2  5  1  0
  5  6  1  0
  6  7  1  0
  6  8  1  0
  6  9  1  0
  5 10  1  0
 10 11  1  0
 10 12  1  0
 10 13  1  0
M  END
>  <linear_selectivity>  (192) 
12

>  <denticity>  (192) 
1

>  <ligand_class>  (192) 
phosphine

$$$$
P(tBu)3_80C_hexane
     RDKit          2D

 13 12  0  0  0  0  0  0  0  0999 V2000
   -0.5490   -2.0490    0.0000 C   0  0  0  0  0  0  0  0  0  0  0  0
    0.7500   -1.2990    0.0000 C   0  0  0  0  0  0  0  0  0  0  0  0
    2.0490   -0.5490    0.0000 C   0  0  0  0  0  0  0  0  0  0  0  0
    1.5000   -2.5981    0.0000 C   0  0  0  0  0  0  0  0  0  0  0  0
    0.0000    0.0000    0.0000 P   0  0  0  0  0  0  0  0  0  0  0  0
    0.7500    1.2990    0.0000 C   0  0  0  0  0  0  0  0  0  0  0  0
   -0.5490    2.0490    0.0000 C   0  0  0  0  0  0  0  0  0  0  0  0
    2.0490    0.5490    0.0000 C   0  0  0  0  0  0  0  0  0  0  0  0
    1.5000    2.5981    0.0000 C   0  0  0  0  0  0  0  0  0  0  0  0
   -1.5000    0.0000    0.0000 C   0  0  0  0  0  0  0  0  0  0  0  0
   -1.5000    1.5000    0.0000 C   0  0  0  0  0  0  0  0  0  0  0  0
   -1.5000   -1.5000    0.0000 C   0  0  0  0  0  0  0  0  0  0  0  0
   -3.0000    0.0000    0.0000 C   0  0  0  0  0  0  0  0  0  0  0  0
  1  2  1  0
  2  3  1  0
  2  4  1  0
  2  5  1  0
  5  6  1  0
  6  7  1  0
  6  8  1  0
  6  9  1  0
  5 10  1  0
 10 11  1  0
 10 12  1  0
 10 13  1  0
M  END
>  <linear_selectivity>  (193) 
12

>  <denticity>  (193) 
1

>  <ligand_class>  (193) 
phosphine

$$$$
P(tBu)3_80C_benzene
     RDKit          2D

 13 12  0  0  0  0  0  0  0  0999 V2000
   -0.5490   -2.0490    0.0000 C   0  0  0  0  0  0  0  0  0  0  0  0
    0.7500   -1.2990    0.0000 C   0  0  0  0  0  0  0  0  0  0  0  0
    2.0490   -0.5490    0.0000 C   0  0  0  0  0  0  0  0  0  0  0  0
    1.5000   -2.5981    0.0000 C   0  0  0  0  0  0  0  0  0  0  0  0
    0.0000    0.0000    0.0000 P   0  0  0  0  0  0  0  0  0  0  0  0
    0.7500    1.2990    0.0000 C   0  0  0  0  0  0  0  0  0  0  0  0
   -0.5490    2.0490    0.0000 C   0  0  0  0  0  0  0  0  0  0  0  0
    2.0490    0.5490    0.0000 C   0  0  0  0  0  0  0  0  0  0  0  0
    1.5000    2.5981    0.0000 C   0  0  0  0  0  0  0  0  0  0  0  0
   -1.5000    0.0000    0.0000 C   0  0  0  0  0  0  0  0  0  0  0  0
   -1.5000    1.5000    0.0000 C   0  0  0  0  0  0  0  0  0  0  0  0
   -1.5000   -1.5000    0.0000 C   0  0  0  0  0  0  0  0  0  0  0  0
   -3.0000    0.0000    0.0000 C   0  0  0  0  0  0  0  0  0  0  0  0
  1  2  1  0
  2  3  1  0
  2  4  1  0
  2  5  1  0
  5  6  1  0
  6  7  1  0
  6  8  1  0
  6  9  1  0
  5 10  1  0
 10 11  1  0
 10 12  1  0
 10 13  1  0
M  END
>  <linear_selectivity>  (194) 
13

>  <denticity>  (194) 
1

>  <ligand_class>  (194) 
phosphine

$$$$
P(tBu)3_90C_toluene
     RDKit          2D

 13 12  0  0  0  0  0  0  0  0999 V2000
   -0.5490   -2.0490    0.0000 C   0  0  0  0  0  0  0  0  0  0  0  0
    0.7500   -1.2990    0.0000 C   0  0  0  0  0  0  0  0  0  0  0  0
    2.0490   -0.5490    0.0000 C   0  0  0  0  0  0  0  0  0  0  0  0
    1.5000   -2.5981    0.0000 C   0  0  0  0  0  0  0  0  0  0  0  0
    0.0000    0.0000    0.0000 P   0  0  0  0  0  0  0  0  0  0  0  0
    0.7500    1.2990    0.0000 C   0  0  0  0  0  0  0  0  0  0  0  0
   -0.5490    2.0490    0.0000 C   0  0  0  0  0  0  0  0  0  0  0  0
    2.0490    0.5490    0.0000 C   0  0  0  0  0  0  0  0  0  0  0  0
    1.5000    2.5981    0.0000 C   0  0  0  0  0  0  0  0  0  0  0  0
   -1.5000    0.0000    0.0000 C   0  0  0  0  0  0  0  0  0  0  0  0
   -1.5000    1.5000    0.0000 C   0  0  0  0  0  0  0  0  0  0  0  0
   -1.5000   -1.5000    0.0000 C   0  0  0  0  0  0  0  0  0  0  0  0
   -3.0000    0.0000    0.0000 C   0  0  0  0  0  0  0  0  0  0  0  0
  1  2  1  0
  2  3  1  0
  2  4  1  0
  2  5  1  0
  5  6  1  0
  6  7  1  0
  6  8  1  0
  6  9  1  0
  5 10  1  0
 10 11  1  0
 10 12  1  0
 10 13  1  0
M  END
>  <linear_selectivity>  (195) 
12

>  <denticity>  (195) 
1

>  <ligand_class>  (195) 
phosphine

$$$$
P(tBu)3_90C_THF
     RDKit          2D

 13 12  0  0  0  0  0  0  0  0999 V2000
   -0.5490   -2.0490    0.0000 C   0  0  0  0  0  0  0  0  0  0  0  0
    0.7500   -1.2990    0.0000 C   0  0  0  0  0  0  0  0  0  0  0  0
    2.0490   -0.5490    0.0000 C   0  0  0  0  0  0  0  0  0  0  0  0
    1.5000   -2.5981    0.0000 C   0  0  0  0  0  0  0  0  0  0  0  0
    0.0000    0.0000    0.0000 P   0  0  0  0  0  0  0  0  0  0  0  0
    0.7500    1.2990    0.0000 C   0  0  0  0  0  0  0  0  0  0  0  0
   -0.5490    2.0490    0.0000 C   0  0  0  0  0  0  0  0  0  0  0  0
    2.0490    0.5490    0.0000 C   0  0  0  0  0  0  0  0  0  0  0  0
    1.5000    2.5981    0.0000 C   0  0  0  0  0  0  0  0  0  0  0  0
   -1.5000    0.0000    0.0000 C   0  0  0  0  0  0  0  0  0  0  0  0
   -1.5000    1.5000    0.0000 C   0  0  0  0  0  0  0  0  0  0  0  0
   -1.5000   -1.5000    0.0000 C   0  0  0  0  0  0  0  0  0  0  0  0
   -3.0000    0.0000    0.0000 C   0  0  0  0  0  0  0  0  0  0  0  0
  1  2  1  0
  2  3  1  0
  2  4  1  0
  2  5  1  0
  5  6  1  0
  6  7  1  0
  6  8  1  0
  6  9  1  0
  5 10  1  0
 10 11  1  0
 10 12  1  0
 10 13  1  0
M  END
>  <linear_selectivity>  (196) 
13

>  <denticity>  (196) 
1

>  <ligand_class>  (196) 
phosphine

$$$$
P(tBu)3_90C_dioxane
     RDKit          2D

 13 12  0  0  0  0  0  0  0  0999 V2000
   -0.5490   -2.0490    0.0000 C   0  0  0  0  0  0  0  0  0  0  0  0
    0.7500   -1.2990    0.0000 C   0  0  0  0  0  0  0  0  0  0  0  0
    2.0490   -0.5490    0.0000 C   0  0  0  0  0  0  0  0  0  0  0  0
    1.5000   -2.5981    0.0000 C   0  0  0  0  0  0  0  0  0  0  0  0
    0.0000    0.0000    0.0000 P   0  0  0  0  0  0  0  0  0  0  0  0
    0.7500    1.2990    0.0000 C   0  0  0  0  0  0  0  0  0  0  0  0
   -0.5490    2.0490    0.0000 C   0  0  0  0  0  0  0  0  0  0  0  0
    2.0490    0.5490    0.0000 C   0  0  0  0  0  0  0  0  0  0  0  0
    1.5000    2.5981    0.0000 C   0  0  0  0  0  0  0  0  0  0  0  0
   -1.5000    0.0000    0.0000 C   0  0  0  0  0  0  0  0  0  0  0  0
   -1.5000    1.5000    0.0000 C   0  0  0  0  0  0  0  0  0  0  0  0
   -1.5000   -1.5000    0.0000 C   0  0  0  0  0  0  0  0  0  0  0  0
   -3.0000    0.0000    0.0000 C   0  0  0  0  0  0  0  0  0  0  0  0
  1  2  1  0
  2  3  1  0
  2  4  1  0
  2  5  1  0
  5  6  1  0
  6  7  1  0
  6  8  1  0
  6  9  1  0
  5 10  1  0
 10 11  1  0
 10 12  1  0
 10 13  1  0
M  END
>  <linear_selectivity>  (197) 
12

>  <denticity>  (197) 
1

>  <ligand_class>  (197) 
phosphine

$$$$
P(tBu)3_90C_hexane
     RDKit          2D

 13 12  0  0  0  0  0  0  0  0999 V2000
   -0.5490   -2.0490    0.0000 C   0  0  0  0  0  0  0  0  0  0  0  0
    0.7500   -1.2990    0.0000 C   0  0  0  0  0  0  0  0  0  0  0  0
    2.0490   -0.5490    0.0000 C   0  0  0  0  0  0  0  0  0  0  0  0
    1.5000   -2.5981    0.0000 C   0  0  0  0  0  0  0  0  0  0  0  0
    0.0000    0.0000    0.0000 P   0  0  0  0  0  0  0  0  0  0  0  0
    0.7500    1.2990    0.0000 C   0  0  0  0  0  0  0  0  0  0  0  0
   -0.5490    2.0490    0.0000 C   0  0  0  0  0  0  0  0  0  0  0  0
    2.0490    0.5490    0.0000 C   0  0  0  0  0  0  0  0  0  0  0  0
    1.5000    2.5981    0.0000 C   0  0  0  0  0  0  0  0  0  0  0  0
   -1.5000    0.0000    0.0000 C   0  0  0  0  0  0  0  0  0  0  0  0
   -1.5000    1.5000    0.0000 C   0  0  0  0  0  0  0  0  0  0  0  0
   -1.5000   -1.5000    0.0000 C   0  0  0  0  0  0  0  0  0  0  0  0
   -3.0000    0.0000    0.0000 C   0  0  0  0  0  0  0  0  0  0  0  0
  1  2  1  0
  2  3  1  0
  2  4  1  0
  2  5  1  0
  5  6  1  0
  6  7  1  0
  6  8  1  0
  6  9  1  0
  5 10  1  0
 10 11  1  0
 10 12  1  0
 10 13  1  0
M  END
>  <linear_selectivity>  (198) 
16

>  <denticity>  (198) 
1

>  <ligand_class>  (198) 
phosphine

$$$$
P(tBu)3_90C_benzene
     RDKit          2D

 13 12  0  0  0  0  0  0  0  0999 V2000
   -0.5490   -2.0490    0.0000 C   0  0  0  0  0  0  0  0  0  0  0  0
    0.7500   -1.2990    0.0000 C   0  0  0  0  0  0  0  0  0  0  0  0
    2.0490   -0.5490    0.0000 C   0  0  0  0  0  0  0  0  0  0  0  0
    1.5000   -2.5981    0.0000 C   0  0  0  0  0  0  0  0  0  0  0  0
    0.0000    0.0000    0.0000 P   0  0  0  0  0  0  0  0  0  0  0  0
    0.7500    1.2990    0.0000 C   0  0  0  0  0  0  0  0  0  0  0  0
   -0.5490    2.0490    0.0000 C   0  0  0  0  0  0  0  0  0  0  0  0
    2.0490    0.5490    0.0000 C   0  0  0  0  0  0  0  0  0  0  0  0
    1.5000    2.5981    0.0000 C   0  0  0  0  0  0  0  0  0  0  0  0
   -1.5000    0.0000    0.0000 C   0  0  0  0  0  0  0  0  0  0  0  0
   -1.5000    1.5000    0.0000 C   0  0  0  0  0  0  0  0  0  0  0  0
   -1.5000   -1.5000    0.0000 C   0  0  0  0  0  0  0  0  0  0  0  0
   -3.0000    0.0000    0.0000 C   0  0  0  0  0  0  0  0  0  0  0  0
  1  2  1  0
  2  3  1  0
  2  4  1  0
  2  5  1  0
  5  6  1  0
  6  7  1  0
  6  8  1  0
  6  9  1  0
  5 10  1  0
 10 11  1  0
 10 12  1  0
 10 13  1  0
M  END
>  <linear_selectivity>  (199) 
14

>  <denticity>  (199) 
1

>  <ligand_class>  (199) 
phosphine

$$$$
P(tBu)3_90C_xylene
     RDKit          2D

 13 12  0  0  0  0  0  0  0  0999 V2000
   -0.5490   -2.0490    0.0000 C   0  0  0  0  0  0  0  0  0  0  0  0
    0.7500   -1.2990    0.0000 C   0  0  0  0  0  0  0  0  0  0  0  0
    2.0490   -0.5490    0.0000 C   0  0  0  0  0  0  0  0  0  0  0  0
    1.5000   -2.5981    0.0000 C   0  0  0  0  0  0  0  0  0  0  0  0
    0.0000    0.0000    0.0000 P   0  0  0  0  0  0  0  0  0  0  0  0
    0.7500    1.2990    0.0000 C   0  0  0  0  0  0  0  0  0  0  0  0
   -0.5490    2.0490    0.0000 C   0  0  0  0  0  0  0  0  0  0  0  0
    2.0490    0.5490    0.0000 C   0  0  0  0  0  0  0  0  0  0  0  0
    1.5000    2.5981    0.0000 C   0  0  0  0  0  0  0  0  0  0  0  0
   -1.5000    0.0000    0.0000 C   0  0  0  0  0  0  0  0  0  0  0  0
   -1.5000    1.5000    0.0000 C   0  0  0  0  0  0  0  0  0  0  0  0
   -1.5000   -1.5000    0.0000 C   0  0  0  0  0  0  0  0  0  0  0  0
   -3.0000    0.0000    0.0000 C   0  0  0  0  0  0  0  0  0  0  0  0
  1  2  1  0
  2  3  1  0
  2  4  1  0
  2  5  1  0
  5  6  1  0
  6  7  1  0
  6  8  1  0
  6  9  1  0
  5 10  1  0
 10 11  1  0
 10 12  1  0
 10 13  1  0
M  END
>  <linear_selectivity>  (200) 
12

>  <denticity>  (200) 
1

>  <ligand_class>  (200) 
phosphine

$$$$
P(tBu)3_100C_benzene
     RDKit          2D

 13 12  0  0  0  0  0  0  0  0999 V2000
   -0.5490   -2.0490    0.0000 C   0  0  0  0  0  0  0  0  0  0  0  0
    0.7500   -1.2990    0.0000 C   0  0  0  0  0  0  0  0  0  0  0  0
    2.0490   -0.5490    0.0000 C   0  0  0  0  0  0  0  0  0  0  0  0
    1.5000   -2.5981    0.0000 C   0  0  0  0  0  0  0  0  0  0  0  0
    0.0000    0.0000    0.0000 P   0  0  0  0  0  0  0  0  0  0  0  0
    0.7500    1.2990    0.0000 C   0  0  0  0  0  0  0  0  0  0  0  0
   -0.5490    2.0490    0.0000 C   0  0  0  0  0  0  0  0  0  0  0  0
    2.0490    0.5490    0.0000 C   0  0  0  0  0  0  0  0  0  0  0  0
    1.5000    2.5981    0.0000 C   0  0  0  0  0  0  0  0  0  0  0  0
   -1.5000    0.0000    0.0000 C   0  0  0  0  0  0  0  0  0  0  0  0
   -1.5000    1.5000    0.0000 C   0  0  0  0  0  0  0  0  0  0  0  0
   -1.5000   -1.5000    0.0000 C   0  0  0  0  0  0  0  0  0  0  0  0
   -3.0000    0.0000    0.0000 C   0  0  0  0  0  0  0  0  0  0  0  0
  1  2  1  0
  2  3  1  0
  2  4  1  0
  2  5  1  0
  5  6  1  0
  6  7  1  0
  6  8  1  0
  6  9  1  0
  5 10  1  0
 10 11  1  0
 10 12  1  0
 10 13  1  0
M  END
>  <linear_selectivity>  (201) 
12

>  <denticity>  (201) 
1

>  <ligand_class>  (201) 
phosphine

$$$$
P(tBu)3_110C_THF
     RDKit          2D

 13 12  0  0  0  0  0  0  0  0999 V2000
   -0.5490   -2.0490    0.0000 C   0  0  0  0  0  0  0  0  0  0  0  0
    0.7500   -1.2990    0.0000 C   0  0  0  0  0  0  0  0  0  0  0  0
    2.0490   -0.5490    0.0000 C   0  0  0  0  0  0  0  0  0  0  0  0
    1.5000   -2.5981    0.0000 C   0  0  0  0  0  0  0  0  0  0  0  0
    0.0000    0.0000    0.0000 P   0  0  0  0  0  0  0  0  0  0  0  0
    0.7500    1.2990    0.0000 C   0  0  0  0  0  0  0  0  0  0  0  0
   -0.5490    2.0490    0.0000 C   0  0  0  0  0  0  0  0  0  0  0  0
    2.0490    0.5490    0.0000 C   0  0  0  0  0  0  0  0  0  0  0  0
    1.5000    2.5981    0.0000 C   0  0  0  0  0  0  0  0  0  0  0  0
   -1.5000    0.0000    0.0000 C   0  0  0  0  0  0  0  0  0  0  0  0
   -1.5000    1.5000    0.0000 C   0  0  0  0  0  0  0  0  0  0  0  0
   -1.5000   -1.5000    0.0000 C   0  0  0  0  0  0  0  0  0  0  0  0
   -3.0000    0.0000    0.0000 C   0  0  0  0  0  0  0  0  0  0  0  0
  1  2  1  0
  2  3  1  0
  2  4  1  0
  2  5  1  0
  5  6  1  0
  6  7  1  0
  6  8  1  0
  6  9  1  0
  5 10  1  0
 10 11  1  0
 10 12  1  0
 10 13  1  0
M  END
>  <linear_selectivity>  (202) 
12

>  <denticity>  (202) 
1

>  <ligand_class>  (202) 
phosphine

$$$$
P(tBu)3_110C_dioxane
     RDKit          2D

 13 12  0  0  0  0  0  0  0  0999 V2000
   -0.5490   -2.0490    0.0000 C   0  0  0  0  0  0  0  0  0  0  0  0
    0.7500   -1.2990    0.0000 C   0  0  0  0  0  0  0  0  0  0  0  0
    2.0490   -0.5490    0.0000 C   0  0  0  0  0  0  0  0  0  0  0  0
    1.5000   -2.5981    0.0000 C   0  0  0  0  0  0  0  0  0  0  0  0
    0.0000    0.0000    0.0000 P   0  0  0  0  0  0  0  0  0  0  0  0
    0.7500    1.2990    0.0000 C   0  0  0  0  0  0  0  0  0  0  0  0
   -0.5490    2.0490    0.0000 C   0  0  0  0  0  0  0  0  0  0  0  0
    2.0490    0.5490    0.0000 C   0  0  0  0  0  0  0  0  0  0  0  0
    1.5000    2.5981    0.0000 C   0  0  0  0  0  0  0  0  0  0  0  0
   -1.5000    0.0000    0.0000 C   0  0  0  0  0  0  0  0  0  0  0  0
   -1.5000    1.5000    0.0000 C   0  0  0  0  0  0  0  0  0  0  0  0
   -1.5000   -1.5000    0.0000 C   0  0  0  0  0  0  0  0  0  0  0  0
   -3.0000    0.0000    0.0000 C   0  0  0  0  0  0  0  0  0  0  0  0
  1  2  1  0
  2  3  1  0
  2  4  1  0
  2  5  1  0
  5  6  1  0
  6  7  1  0
  6  8  1  0
  6  9  1  0
  5 10  1  0
 10 11  1  0
 10 12  1  0
 10 13  1  0
M  END
>  <linear_selectivity>  (203) 
12

>  <denticity>  (203) 
1

>  <ligand_class>  (203) 
phosphine

$$$$
P(tBu)3_110C_xylene
     RDKit          2D

 13 12  0  0  0  0  0  0  0  0999 V2000
   -0.5490   -2.0490    0.0000 C   0  0  0  0  0  0  0  0  0  0  0  0
    0.7500   -1.2990    0.0000 C   0  0  0  0  0  0  0  0  0  0  0  0
    2.0490   -0.5490    0.0000 C   0  0  0  0  0  0  0  0  0  0  0  0
    1.5000   -2.5981    0.0000 C   0  0  0  0  0  0  0  0  0  0  0  0
    0.0000    0.0000    0.0000 P   0  0  0  0  0  0  0  0  0  0  0  0
    0.7500    1.2990    0.0000 C   0  0  0  0  0  0  0  0  0  0  0  0
   -0.5490    2.0490    0.0000 C   0  0  0  0  0  0  0  0  0  0  0  0
    2.0490    0.5490    0.0000 C   0  0  0  0  0  0  0  0  0  0  0  0
    1.5000    2.5981    0.0000 C   0  0  0  0  0  0  0  0  0  0  0  0
   -1.5000    0.0000    0.0000 C   0  0  0  0  0  0  0  0  0  0  0  0
   -1.5000    1.5000    0.0000 C   0  0  0  0  0  0  0  0  0  0  0  0
   -1.5000   -1.5000    0.0000 C   0  0  0  0  0  0  0  0  0  0  0  0
   -3.0000    0.0000    0.0000 C   0  0  0  0  0  0  0  0  0  0  0  0
  1  2  1  0
  2  3  1  0
  2  4  1  0
  2  5  1  0
  5  6  1  0
  6  7  1  0
  6  8  1  0
  6  9  1  0
  5 10  1  0
 10 11  1  0
 10 12  1  0
 10 13  1  0
M  END
>  <linear_selectivity>  (204) 
12

>  <denticity>  (204) 
1

>  <ligand_class>  (204) 
phosphine

$$$$
P(tBu)3_120C_toluene
     RDKit          2D

 13 12  0  0  0  0  0  0  0  0999 V2000
   -0.5490   -2.0490    0.0000 C   0  0  0  0  0  0  0  0  0  0  0  0
    0.7500   -1.2990    0.0000 C   0  0  0  0  0  0  0  0  0  0  0  0
    2.0490   -0.5490    0.0000 C   0  0  0  0  0  0  0  0  0  0  0  0
    1.5000   -2.5981    0.0000 C   0  0  0  0  0  0  0  0  0  0  0  0
    0.0000    0.0000    0.0000 P   0  0  0  0  0  0  0  0  0  0  0  0
    0.7500    1.2990    0.0000 C   0  0  0  0  0  0  0  0  0  0  0  0
   -0.5490    2.0490    0.0000 C   0  0  0  0  0  0  0  0  0  0  0  0
    2.0490    0.5490    0.0000 C   0  0  0  0  0  0  0  0  0  0  0  0
    1.5000    2.5981    0.0000 C   0  0  0  0  0  0  0  0  0  0  0  0
   -1.5000    0.0000    0.0000 C   0  0  0  0  0  0  0  0  0  0  0  0
   -1.5000    1.5000    0.0000 C   0  0  0  0  0  0  0  0  0  0  0  0
   -1.5000   -1.5000    0.0000 C   0  0  0  0  0  0  0  0  0  0  0  0
   -3.0000    0.0000    0.0000 C   0  0  0  0  0  0  0  0  0  0  0  0
  1  2  1  0
  2  3  1  0
  2  4  1  0
  2  5  1  0
  5  6  1  0
  6  7  1  0
  6  8  1  0
  6  9  1  0
  5 10  1  0
 10 11  1  0
 10 12  1  0
 10 13  1  0
M  END
>  <linear_selectivity>  (205) 
12

>  <denticity>  (205) 
1

>  <ligand_class>  (205) 
phosphine

$$$$
P(tBu)3_120C_THF
     RDKit          2D

 13 12  0  0  0  0  0  0  0  0999 V2000
   -0.5490   -2.0490    0.0000 C   0  0  0  0  0  0  0  0  0  0  0  0
    0.7500   -1.2990    0.0000 C   0  0  0  0  0  0  0  0  0  0  0  0
    2.0490   -0.5490    0.0000 C   0  0  0  0  0  0  0  0  0  0  0  0
    1.5000   -2.5981    0.0000 C   0  0  0  0  0  0  0  0  0  0  0  0
    0.0000    0.0000    0.0000 P   0  0  0  0  0  0  0  0  0  0  0  0
    0.7500    1.2990    0.0000 C   0  0  0  0  0  0  0  0  0  0  0  0
   -0.5490    2.0490    0.0000 C   0  0  0  0  0  0  0  0  0  0  0  0
    2.0490    0.5490    0.0000 C   0  0  0  0  0  0  0  0  0  0  0  0
    1.5000    2.5981    0.0000 C   0  0  0  0  0  0  0  0  0  0  0  0
   -1.5000    0.0000    0.0000 C   0  0  0  0  0  0  0  0  0  0  0  0
   -1.5000    1.5000    0.0000 C   0  0  0  0  0  0  0  0  0  0  0  0
   -1.5000   -1.5000    0.0000 C   0  0  0  0  0  0  0  0  0  0  0  0
   -3.0000    0.0000    0.0000 C   0  0  0  0  0  0  0  0  0  0  0  0
  1  2  1  0
  2  3  1  0
  2  4  1  0
  2  5  1  0
  5  6  1  0
  6  7  1  0
  6  8  1  0
  6  9  1  0
  5 10  1  0
 10 11  1  0
 10 12  1  0
 10 13  1  0
M  END
>  <linear_selectivity>  (206) 
12

>  <denticity>  (206) 
1

>  <ligand_class>  (206) 
phosphine

$$$$
P(tBu)3_120C_dioxane
     RDKit          2D

 13 12  0  0  0  0  0  0  0  0999 V2000
   -0.5490   -2.0490    0.0000 C   0  0  0  0  0  0  0  0  0  0  0  0
    0.7500   -1.2990    0.0000 C   0  0  0  0  0  0  0  0  0  0  0  0
    2.0490   -0.5490    0.0000 C   0  0  0  0  0  0  0  0  0  0  0  0
    1.5000   -2.5981    0.0000 C   0  0  0  0  0  0  0  0  0  0  0  0
    0.0000    0.0000    0.0000 P   0  0  0  0  0  0  0  0  0  0  0  0
    0.7500    1.2990    0.0000 C   0  0  0  0  0  0  0  0  0  0  0  0
   -0.5490    2.0490    0.0000 C   0  0  0  0  0  0  0  0  0  0  0  0
    2.0490    0.5490    0.0000 C   0  0  0  0  0  0  0  0  0  0  0  0
    1.5000    2.5981    0.0000 C   0  0  0  0  0  0  0  0  0  0  0  0
   -1.5000    0.0000    0.0000 C   0  0  0  0  0  0  0  0  0  0  0  0
   -1.5000    1.5000    0.0000 C   0  0  0  0  0  0  0  0  0  0  0  0
   -1.5000   -1.5000    0.0000 C   0  0  0  0  0  0  0  0  0  0  0  0
   -3.0000    0.0000    0.0000 C   0  0  0  0  0  0  0  0  0  0  0  0
  1  2  1  0
  2  3  1  0
  2  4  1  0
  2  5  1  0
  5  6  1  0
  6  7  1  0
  6  8  1  0
  6  9  1  0
  5 10  1  0
 10 11  1  0
 10 12  1  0
 10 13  1  0
M  END
>  <linear_selectivity>  (207) 
13

>  <denticity>  (207) 
1

>  <ligand_class>  (207) 
phosphine

$$$$
P(tBu)3_120C_hexane
     RDKit          2D

 13 12  0  0  0  0  0  0  0  0999 V2000
   -0.5490   -2.0490    0.0000 C   0  0  0  0  0  0  0  0  0  0  0  0
    0.7500   -1.2990    0.0000 C   0  0  0  0  0  0  0  0  0  0  0  0
    2.0490   -0.5490    0.0000 C   0  0  0  0  0  0  0  0  0  0  0  0
    1.5000   -2.5981    0.0000 C   0  0  0  0  0  0  0  0  0  0  0  0
    0.0000    0.0000    0.0000 P   0  0  0  0  0  0  0  0  0  0  0  0
    0.7500    1.2990    0.0000 C   0  0  0  0  0  0  0  0  0  0  0  0
   -0.5490    2.0490    0.0000 C   0  0  0  0  0  0  0  0  0  0  0  0
    2.0490    0.5490    0.0000 C   0  0  0  0  0  0  0  0  0  0  0  0
    1.5000    2.5981    0.0000 C   0  0  0  0  0  0  0  0  0  0  0  0
   -1.5000    0.0000    0.0000 C   0  0  0  0  0  0  0  0  0  0  0  0
   -1.5000    1.5000    0.0000 C   0  0  0  0  0  0  0  0  0  0  0  0
   -1.5000   -1.5000    0.0000 C   0  0  0  0  0  0  0  0  0  0  0  0
   -3.0000    0.0000    0.0000 C   0  0  0  0  0  0  0  0  0  0  0  0
  1  2  1  0
  2  3  1  0
  2  4  1  0
  2  5  1  0
  5  6  1  0
  6  7  1  0
  6  8  1  0
  6  9  1  0
  5 10  1  0
 10 11  1  0
 10 12  1  0
 10 13  1  0
M  END
>  <linear_selectivity>  (208) 
12

>  <denticity>  (208) 
1

>  <ligand_class>  (208) 
phosphine

$$$$
P(tBu)3_120C_benzene
     RDKit          2D

 13 12  0  0  0  0  0  0  0  0999 V2000
   -0.5490   -2.0490    0.0000 C   0  0  0  0  0  0  0  0  0  0  0  0
    0.7500   -1.2990    0.0000 C   0  0  0  0  0  0  0  0  0  0  0  0
    2.0490   -0.5490    0.0000 C   0  0  0  0  0  0  0  0  0  0  0  0
    1.5000   -2.5981    0.0000 C   0  0  0  0  0  0  0  0  0  0  0  0
    0.0000    0.0000    0.0000 P   0  0  0  0  0  0  0  0  0  0  0  0
    0.7500    1.2990    0.0000 C   0  0  0  0  0  0  0  0  0  0  0  0
   -0.5490    2.0490    0.0000 C   0  0  0  0  0  0  0  0  0  0  0  0
    2.0490    0.5490    0.0000 C   0  0  0  0  0  0  0  0  0  0  0  0
    1.5000    2.5981    0.0000 C   0  0  0  0  0  0  0  0  0  0  0  0
   -1.5000    0.0000    0.0000 C   0  0  0  0  0  0  0  0  0  0  0  0
   -1.5000    1.5000    0.0000 C   0  0  0  0  0  0  0  0  0  0  0  0
   -1.5000   -1.5000    0.0000 C   0  0  0  0  0  0  0  0  0  0  0  0
   -3.0000    0.0000    0.0000 C   0  0  0  0  0  0  0  0  0  0  0  0
  1  2  1  0
  2  3  1  0
  2  4  1  0
  2  5  1  0
  5  6  1  0
  6  7  1  0
  6  8  1  0
  6  9  1  0
  5 10  1  0
 10 11  1  0
 10 12  1  0
 10 13  1  0
M  END
>  <linear_selectivity>  (209) 
13

>  <denticity>  (209) 
1

>  <ligand_class>  (209) 
phosphine

$$$$
P(tBu)3_120C_xylene
     RDKit          2D

 13 12  0  0  0  0  0  0  0  0999 V2000
   -0.5490   -2.0490    0.0000 C   0  0  0  0  0  0  0  0  0  0  0  0
    0.7500   -1.2990    0.0000 C   0  0  0  0  0  0  0  0  0  0  0  0
    2.0490   -0.5490    0.0000 C   0  0  0  0  0  0  0  0  0  0  0  0
    1.5000   -2.5981    0.0000 C   0  0  0  0  0  0  0  0  0  0  0  0
    0.0000    0.0000    0.0000 P   0  0  0  0  0  0  0  0  0  0  0  0
    0.7500    1.2990    0.0000 C   0  0  0  0  0  0  0  0  0  0  0  0
   -0.5490    2.0490    0.0000 C   0  0  0  0  0  0  0  0  0  0  0  0
    2.0490    0.5490    0.0000 C   0  0  0  0  0  0  0  0  0  0  0  0
    1.5000    2.5981    0.0000 C   0  0  0  0  0  0  0  0  0  0  0  0
   -1.5000    0.0000    0.0000 C   0  0  0  0  0  0  0  0  0  0  0  0
   -1.5000    1.5000    0.0000 C   0  0  0  0  0  0  0  0  0  0  0  0
   -1.5000   -1.5000    0.0000 C   0  0  0  0  0  0  0  0  0  0  0  0
   -3.0000    0.0000    0.0000 C   0  0  0  0  0  0  0  0  0  0  0  0
  1  2  1  0
  2  3  1  0
  2  4  1  0
  2  5  1  0
  5  6  1  0
  6  7  1  0
  6  8  1  0
  6  9  1  0
  5 10  1  0
 10 11  1  0
 10 12  1  0
 10 13  1  0
M  END
>  <linear_selectivity>  (210) 
14

>  <denticity>  (210) 
1

>  <ligand_class>  (210) 
phosphine

$$$$
P(tBu)3_130C_toluene
     RDKit          2D

 13 12  0  0  0  0  0  0  0  0999 V2000
   -0.5490   -2.0490    0.0000 C   0  0  0  0  0  0  0  0  0  0  0  0
    0.7500   -1.2990    0.0000 C   0  0  0  0  0  0  0  0  0  0  0  0
    2.0490   -0.5490    0.0000 C   0  0  0  0  0  0  0  0  0  0  0  0
    1.5000   -2.5981    0.0000 C   0  0  0  0  0  0  0  0  0  0  0  0
    0.0000    0.0000    0.0000 P   0  0  0  0  0  0  0  0  0  0  0  0
    0.7500    1.2990    0.0000 C   0  0  0  0  0  0  0  0  0  0  0  0
   -0.5490    2.0490    0.0000 C   0  0  0  0  0  0  0  0  0  0  0  0
    2.0490    0.5490    0.0000 C   0  0  0  0  0  0  0  0  0  0  0  0
    1.5000    2.5981    0.0000 C   0  0  0  0  0  0  0  0  0  0  0  0
   -1.5000    0.0000    0.0000 C   0  0  0  0  0  0  0  0  0  0  0  0
   -1.5000    1.5000    0.0000 C   0  0  0  0  0  0  0  0  0  0  0  0
   -1.5000   -1.5000    0.0000 C   0  0  0  0  0  0  0  0  0  0  0  0
   -3.0000    0.0000    0.0000 C   0  0  0  0  0  0  0  0  0  0  0  0
  1  2  1  0
  2  3  1  0
  2  4  1  0
  2  5  1  0
  5  6  1  0
  6  7  1  0
  6  8  1  0
  6  9  1  0
  5 10  1  0
 10 11  1  0
 10 12  1  0
 10 13  1  0
M  END
>  <linear_selectivity>  (211) 
12

>  <denticity>  (211) 
1

>  <ligand_class>  (211) 
phosphine

$$$$
P(tBu)3_130C_THF
     RDKit          2D

 13 12  0  0  0  0  0  0  0  0999 V2000
   -0.5490   -2.0490    0.0000 C   0  0  0  0  0  0  0  0  0  0  0  0
    0.7500   -1.2990    0.0000 C   0  0  0  0  0  0  0  0  0  0  0  0
    2.0490   -0.5490    0.0000 C   0  0  0  0  0  0  0  0  0  0  0  0
    1.5000   -2.5981    0.0000 C   0  0  0  0  0  0  0  0  0  0  0  0
    0.0000    0.0000    0.0000 P   0  0  0  0  0  0  0  0  0  0  0  0
    0.7500    1.2990    0.0000 C   0  0  0  0  0  0  0  0  0  0  0  0
   -0.5490    2.0490    0.0000 C   0  0  0  0  0  0  0  0  0  0  0  0
    2.0490    0.5490    0.0000 C   0  0  0  0  0  0  0  0  0  0  0  0
    1.5000    2.5981    0.0000 C   0  0  0  0  0  0  0  0  0  0  0  0
   -1.5000    0.0000    0.0000 C   0  0  0  0  0  0  0  0  0  0  0  0
   -1.5000    1.5000    0.0000 C   0  0  0  0  0  0  0  0  0  0  0  0
   -1.5000   -1.5000    0.0000 C   0  0  0  0  0  0  0  0  0  0  0  0
   -3.0000    0.0000    0.0000 C   0  0  0  0  0  0  0  0  0  0  0  0
  1  2  1  0
  2  3  1  0
  2  4  1  0
  2  5  1  0
  5  6  1  0
  6  7  1  0
  6  8  1  0
  6  9  1  0
  5 10  1  0
 10 11  1  0
 10 12  1  0
 10 13  1  0
M  END
>  <linear_selectivity>  (212) 
12

>  <denticity>  (212) 
1

>  <ligand_class>  (212) 
phosphine

$$$$
P(tBu)3_130C_hexane
     RDKit          2D

 13 12  0  0  0  0  0  0  0  0999 V2000
   -0.5490   -2.0490    0.0000 C   0  0  0  0  0  0  0  0  0  0  0  0
    0.7500   -1.2990    0.0000 C   0  0  0  0  0  0  0  0  0  0  0  0
    2.0490   -0.5490    0.0000 C   0  0  0  0  0  0  0  0  0  0  0  0
    1.5000   -2.5981    0.0000 C   0  0  0  0  0  0  0  0  0  0  0  0
    0.0000    0.0000    0.0000 P   0  0  0  0  0  0  0  0  0  0  0  0
    0.7500    1.2990    0.0000 C   0  0  0  0  0  0  0  0  0  0  0  0
   -0.5490    2.0490    0.0000 C   0  0  0  0  0  0  0  0  0  0  0  0
    2.0490    0.5490    0.0000 C   0  0  0  0  0  0  0  0  0  0  0  0
    1.5000    2.5981    0.0000 C   0  0  0  0  0  0  0  0  0  0  0  0
   -1.5000    0.0000    0.0000 C   0  0  0  0  0  0  0  0  0  0  0  0
   -1.5000    1.5000    0.0000 C   0  0  0  0  0  0  0  0  0  0  0  0
   -1.5000   -1.5000    0.0000 C   0  0  0  0  0  0  0  0  0  0  0  0
   -3.0000    0.0000    0.0000 C   0  0  0  0  0  0  0  0  0  0  0  0
  1  2  1  0
  2  3  1  0
  2  4  1  0
  2  5  1  0
  5  6  1  0
  6  7  1  0
  6  8  1  0
  6  9  1  0
  5 10  1  0
 10 11  1  0
 10 12  1  0
 10 13  1  0
M  END
>  <linear_selectivity>  (213) 
12

>  <denticity>  (213) 
1

>  <ligand_class>  (213) 
phosphine

$$$$
P(tBu)3_130C_benzene
     RDKit          2D

 13 12  0  0  0  0  0  0  0  0999 V2000
   -0.5490   -2.0490    0.0000 C   0  0  0  0  0  0  0  0  0  0  0  0
    0.7500   -1.2990    0.0000 C   0  0  0  0  0  0  0  0  0  0  0  0
    2.0490   -0.5490    0.0000 C   0  0  0  0  0  0  0  0  0  0  0  0
    1.5000   -2.5981    0.0000 C   0  0  0  0  0  0  0  0  0  0  0  0
    0.0000    0.0000    0.0000 P   0  0  0  0  0  0  0  0  0  0  0  0
    0.7500    1.2990    0.0000 C   0  0  0  0  0  0  0  0  0  0  0  0
   -0.5490    2.0490    0.0000 C   0  0  0  0  0  0  0  0  0  0  0  0
    2.0490    0.5490    0.0000 C   0  0  0  0  0  0  0  0  0  0  0  0
    1.5000    2.5981    0.0000 C   0  0  0  0  0  0  0  0  0  0  0  0
   -1.5000    0.0000    0.0000 C   0  0  0  0  0  0  0  0  0  0  0  0
   -1.5000    1.5000    0.0000 C   0  0  0  0  0  0  0  0  0  0  0  0
   -1.5000   -1.5000    0.0000 C   0  0  0  0  0  0  0  0  0  0  0  0
   -3.0000    0.0000    0.0000 C   0  0  0  0  0  0  0  0  0  0  0  0
  1  2  1  0
  2  3  1  0
  2  4  1  0
  2  5  1  0
  5  6  1  0
  6  7  1  0
  6  8  1  0
  6  9  1  0
  5 10  1  0
 10 11  1  0
 10 12  1  0
 10 13  1  0
M  END
>  <linear_selectivity>  (214) 
15

>  <denticity>  (214) 
1

>  <ligand_class>  (214) 
phosphine

$$$$
P(nBu)3
     RDKit          2D

 13 12  0  0  0  0  0  0  0  0999 V2000
    5.6179    0.4821    0.0000 C   0  0  0  0  0  0  0  0  0  0  0  0
    4.5024   -0.5207    0.0000 C   0  0  0  0  0  0  0  0  0  0  0  0
    3.0762   -0.0562    0.0000 C   0  0  0  0  0  0  0  0  0  0  0  0
    1.9607   -1.0590    0.0000 C   0  0  0  0  0  0  0  0  0  0  0  0
    0.5345   -0.5945    0.0000 P   0  0  0  0  0  0  0  0  0  0  0  0
   -0.5810   -1.5973    0.0000 C   0  0  0  0  0  0  0  0  0  0  0  0
   -2.0072   -1.1328    0.0000 C   0  0  0  0  0  0  0  0  0  0  0  0
   -3.1227   -2.1357    0.0000 C   0  0  0  0  0  0  0  0  0  0  0  0
   -4.5489   -1.6711    0.0000 C   0  0  0  0  0  0  0  0  0  0  0  0
    0.2237    0.8730    0.0000 C   0  0  0  0  0  0  0  0  0  0  0  0
   -1.2026    1.3376    0.0000 C   0  0  0  0  0  0  0  0  0  0  0  0
   -1.5134    2.8050    0.0000 C   0  0  0  0  0  0  0  0  0  0  0  0
   -2.9396    3.2696    0.0000 C   0  0  0  0  0  0  0  0  0  0  0  0
  1  2  1  0
  2  3  1  0
  3  4  1  0
  4  5  1  0
  5  6  1  0
  6  7  1  0
  7  8  1  0
  8  9  1  0
  5 10  1  0
 10 11  1  0
 11 12  1  0
 12 13  1  0
M  END
>  <linear_selectivity>  (215) 
22

>  <denticity>  (215) 
1

>  <ligand_class>  (215) 
phosphine

$$$$
P(nBu)3_70C_toluene
     RDKit          2D

 13 12  0  0  0  0  0  0  0  0999 V2000
    5.6179    0.4821    0.0000 C   0  0  0  0  0  0  0  0  0  0  0  0
    4.5024   -0.5207    0.0000 C   0  0  0  0  0  0  0  0  0  0  0  0
    3.0762   -0.0562    0.0000 C   0  0  0  0  0  0  0  0  0  0  0  0
    1.9607   -1.0590    0.0000 C   0  0  0  0  0  0  0  0  0  0  0  0
    0.5345   -0.5945    0.0000 P   0  0  0  0  0  0  0  0  0  0  0  0
   -0.5810   -1.5973    0.0000 C   0  0  0  0  0  0  0  0  0  0  0  0
   -2.0072   -1.1328    0.0000 C   0  0  0  0  0  0  0  0  0  0  0  0
   -3.1227   -2.1357    0.0000 C   0  0  0  0  0  0  0  0  0  0  0  0
   -4.5489   -1.6711    0.0000 C   0  0  0  0  0  0  0  0  0  0  0  0
    0.2237    0.8730    0.0000 C   0  0  0  0  0  0  0  0  0  0  0  0
   -1.2026    1.3376    0.0000 C   0  0  0  0  0  0  0  0  0  0  0  0
   -1.5134    2.8050    0.0000 C   0  0  0  0  0  0  0  0  0  0  0  0
   -2.9396    3.2696    0.0000 C   0  0  0  0  0  0  0  0  0  0  0  0
  1  2  1  0
  2  3  1  0
  3  4  1  0
  4  5  1  0
  5  6  1  0
  6  7  1  0
  7  8  1  0
  8  9  1  0
  5 10  1  0
 10 11  1  0
 11 12  1  0
 12 13  1  0
M  END
>  <linear_selectivity>  (216) 
22

>  <denticity>  (216) 
1

>  <ligand_class>  (216) 
phosphine

$$$$
P(nBu)3_70C_THF
     RDKit          2D

 13 12  0  0  0  0  0  0  0  0999 V2000
    5.6179    0.4821    0.0000 C   0  0  0  0  0  0  0  0  0  0  0  0
    4.5024   -0.5207    0.0000 C   0  0  0  0  0  0  0  0  0  0  0  0
    3.0762   -0.0562    0.0000 C   0  0  0  0  0  0  0  0  0  0  0  0
    1.9607   -1.0590    0.0000 C   0  0  0  0  0  0  0  0  0  0  0  0
    0.5345   -0.5945    0.0000 P   0  0  0  0  0  0  0  0  0  0  0  0
   -0.5810   -1.5973    0.0000 C   0  0  0  0  0  0  0  0  0  0  0  0
   -2.0072   -1.1328    0.0000 C   0  0  0  0  0  0  0  0  0  0  0  0
   -3.1227   -2.1357    0.0000 C   0  0  0  0  0  0  0  0  0  0  0  0
   -4.5489   -1.6711    0.0000 C   0  0  0  0  0  0  0  0  0  0  0  0
    0.2237    0.8730    0.0000 C   0  0  0  0  0  0  0  0  0  0  0  0
   -1.2026    1.3376    0.0000 C   0  0  0  0  0  0  0  0  0  0  0  0
   -1.5134    2.8050    0.0000 C   0  0  0  0  0  0  0  0  0  0  0  0
   -2.9396    3.2696    0.0000 C   0  0  0  0  0  0  0  0  0  0  0  0
  1  2  1  0
  2  3  1  0
  3  4  1  0
  4  5  1  0
  5  6  1  0
  6  7  1  0
  7  8  1  0
  8  9  1  0
  5 10  1  0
 10 11  1  0
 11 12  1  0
 12 13  1  0
M  END
>  <linear_selectivity>  (217) 
25

>  <denticity>  (217) 
1

>  <ligand_class>  (217) 
phosphine

$$$$
P(nBu)3_70C_hexane
     RDKit          2D

 13 12  0  0  0  0  0  0  0  0999 V2000
    5.6179    0.4821    0.0000 C   0  0  0  0  0  0  0  0  0  0  0  0
    4.5024   -0.5207    0.0000 C   0  0  0  0  0  0  0  0  0  0  0  0
    3.0762   -0.0562    0.0000 C   0  0  0  0  0  0  0  0  0  0  0  0
    1.9607   -1.0590    0.0000 C   0  0  0  0  0  0  0  0  0  0  0  0
    0.5345   -0.5945    0.0000 P   0  0  0  0  0  0  0  0  0  0  0  0
   -0.5810   -1.5973    0.0000 C   0  0  0  0  0  0  0  0  0  0  0  0
   -2.0072   -1.1328    0.0000 C   0  0  0  0  0  0  0  0  0  0  0  0
   -3.1227   -2.1357    0.0000 C   0  0  0  0  0  0  0  0  0  0  0  0
   -4.5489   -1.6711    0.0000 C   0  0  0  0  0  0  0  0  0  0  0  0
    0.2237    0.8730    0.0000 C   0  0  0  0  0  0  0  0  0  0  0  0
   -1.2026    1.3376    0.0000 C   0  0  0  0  0  0  0  0  0  0  0  0
   -1.5134    2.8050    0.0000 C   0  0  0  0  0  0  0  0  0  0  0  0
   -2.9396    3.2696    0.0000 C   0  0  0  0  0  0  0  0  0  0  0  0
  1  2  1  0
  2  3  1  0
  3  4  1  0
  4  5  1  0
  5  6  1  0
  6  7  1  0
  7  8  1  0
  8  9  1  0
  5 10  1  0
 10 11  1  0
 11 12  1  0
 12 13  1  0
M  END
>  <linear_selectivity>  (218) 
27

>  <denticity>  (218) 
1

>  <ligand_class>  (218) 
phosphine

$$$$
P(nBu)3_80C_toluene
     RDKit          2D

 13 12  0  0  0  0  0  0  0  0999 V2000
    5.6179    0.4821    0.0000 C   0  0  0  0  0  0  0  0  0  0  0  0
    4.5024   -0.5207    0.0000 C   0  0  0  0  0  0  0  0  0  0  0  0
    3.0762   -0.0562    0.0000 C   0  0  0  0  0  0  0  0  0  0  0  0
    1.9607   -1.0590    0.0000 C   0  0  0  0  0  0  0  0  0  0  0  0
    0.5345   -0.5945    0.0000 P   0  0  0  0  0  0  0  0  0  0  0  0
   -0.5810   -1.5973    0.0000 C   0  0  0  0  0  0  0  0  0  0  0  0
   -2.0072   -1.1328    0.0000 C   0  0  0  0  0  0  0  0  0  0  0  0
   -3.1227   -2.1357    0.0000 C   0  0  0  0  0  0  0  0  0  0  0  0
   -4.5489   -1.6711    0.0000 C   0  0  0  0  0  0  0  0  0  0  0  0
    0.2237    0.8730    0.0000 C   0  0  0  0  0  0  0  0  0  0  0  0
   -1.2026    1.3376    0.0000 C   0  0  0  0  0  0  0  0  0  0  0  0
   -1.5134    2.8050    0.0000 C   0  0  0  0  0  0  0  0  0  0  0  0
   -2.9396    3.2696    0.0000 C   0  0  0  0  0  0  0  0  0  0  0  0
  1  2  1  0
  2  3  1  0
  3  4  1  0
  4  5  1  0
  5  6  1  0
  6  7  1  0
  7  8  1  0
  8  9  1  0
  5 10  1  0
 10 11  1  0
 11 12  1  0
 12 13  1  0
M  END
>  <linear_selectivity>  (219) 
22

>  <denticity>  (219) 
1

>  <ligand_class>  (219) 
phosphine

$$$$
P(nBu)3_80C_dioxane
     RDKit          2D

 13 12  0  0  0  0  0  0  0  0999 V2000
    5.6179    0.4821    0.0000 C   0  0  0  0  0  0  0  0  0  0  0  0
    4.5024   -0.5207    0.0000 C   0  0  0  0  0  0  0  0  0  0  0  0
    3.0762   -0.0562    0.0000 C   0  0  0  0  0  0  0  0  0  0  0  0
    1.9607   -1.0590    0.0000 C   0  0  0  0  0  0  0  0  0  0  0  0
    0.5345   -0.5945    0.0000 P   0  0  0  0  0  0  0  0  0  0  0  0
   -0.5810   -1.5973    0.0000 C   0  0  0  0  0  0  0  0  0  0  0  0
   -2.0072   -1.1328    0.0000 C   0  0  0  0  0  0  0  0  0  0  0  0
   -3.1227   -2.1357    0.0000 C   0  0  0  0  0  0  0  0  0  0  0  0
   -4.5489   -1.6711    0.0000 C   0  0  0  0  0  0  0  0  0  0  0  0
    0.2237    0.8730    0.0000 C   0  0  0  0  0  0  0  0  0  0  0  0
   -1.2026    1.3376    0.0000 C   0  0  0  0  0  0  0  0  0  0  0  0
   -1.5134    2.8050    0.0000 C   0  0  0  0  0  0  0  0  0  0  0  0
   -2.9396    3.2696    0.0000 C   0  0  0  0  0  0  0  0  0  0  0  0
  1  2  1  0
  2  3  1  0
  3  4  1  0
  4  5  1  0
  5  6  1  0
  6  7  1  0
  7  8  1  0
  8  9  1  0
  5 10  1  0
 10 11  1  0
 11 12  1  0
 12 13  1  0
M  END
>  <linear_selectivity>  (220) 
23

>  <denticity>  (220) 
1

>  <ligand_class>  (220) 
phosphine

$$$$
P(nBu)3_80C_hexane
     RDKit          2D

 13 12  0  0  0  0  0  0  0  0999 V2000
    5.6179    0.4821    0.0000 C   0  0  0  0  0  0  0  0  0  0  0  0
    4.5024   -0.5207    0.0000 C   0  0  0  0  0  0  0  0  0  0  0  0
    3.0762   -0.0562    0.0000 C   0  0  0  0  0  0  0  0  0  0  0  0
    1.9607   -1.0590    0.0000 C   0  0  0  0  0  0  0  0  0  0  0  0
    0.5345   -0.5945    0.0000 P   0  0  0  0  0  0  0  0  0  0  0  0
   -0.5810   -1.5973    0.0000 C   0  0  0  0  0  0  0  0  0  0  0  0
   -2.0072   -1.1328    0.0000 C   0  0  0  0  0  0  0  0  0  0  0  0
   -3.1227   -2.1357    0.0000 C   0  0  0  0  0  0  0  0  0  0  0  0
   -4.5489   -1.6711    0.0000 C   0  0  0  0  0  0  0  0  0  0  0  0
    0.2237    0.8730    0.0000 C   0  0  0  0  0  0  0  0  0  0  0  0
   -1.2026    1.3376    0.0000 C   0  0  0  0  0  0  0  0  0  0  0  0
   -1.5134    2.8050    0.0000 C   0  0  0  0  0  0  0  0  0  0  0  0
   -2.9396    3.2696    0.0000 C   0  0  0  0  0  0  0  0  0  0  0  0
  1  2  1  0
  2  3  1  0
  3  4  1  0
  4  5  1  0
  5  6  1  0
  6  7  1  0
  7  8  1  0
  8  9  1  0
  5 10  1  0
 10 11  1  0
 11 12  1  0
 12 13  1  0
M  END
>  <linear_selectivity>  (221) 
23

>  <denticity>  (221) 
1

>  <ligand_class>  (221) 
phosphine

$$$$
P(nBu)3_80C_xylene
     RDKit          2D

 13 12  0  0  0  0  0  0  0  0999 V2000
    5.6179    0.4821    0.0000 C   0  0  0  0  0  0  0  0  0  0  0  0
    4.5024   -0.5207    0.0000 C   0  0  0  0  0  0  0  0  0  0  0  0
    3.0762   -0.0562    0.0000 C   0  0  0  0  0  0  0  0  0  0  0  0
    1.9607   -1.0590    0.0000 C   0  0  0  0  0  0  0  0  0  0  0  0
    0.5345   -0.5945    0.0000 P   0  0  0  0  0  0  0  0  0  0  0  0
   -0.5810   -1.5973    0.0000 C   0  0  0  0  0  0  0  0  0  0  0  0
   -2.0072   -1.1328    0.0000 C   0  0  0  0  0  0  0  0  0  0  0  0
   -3.1227   -2.1357    0.0000 C   0  0  0  0  0  0  0  0  0  0  0  0
   -4.5489   -1.6711    0.0000 C   0  0  0  0  0  0  0  0  0  0  0  0
    0.2237    0.8730    0.0000 C   0  0  0  0  0  0  0  0  0  0  0  0
   -1.2026    1.3376    0.0000 C   0  0  0  0  0  0  0  0  0  0  0  0
   -1.5134    2.8050    0.0000 C   0  0  0  0  0  0  0  0  0  0  0  0
   -2.9396    3.2696    0.0000 C   0  0  0  0  0  0  0  0  0  0  0  0
  1  2  1  0
  2  3  1  0
  3  4  1  0
  4  5  1  0
  5  6  1  0
  6  7  1  0
  7  8  1  0
  8  9  1  0
  5 10  1  0
 10 11  1  0
 11 12  1  0
 12 13  1  0
M  END
>  <linear_selectivity>  (222) 
25

>  <denticity>  (222) 
1

>  <ligand_class>  (222) 
phosphine

$$$$
P(nBu)3_90C_toluene
     RDKit          2D

 13 12  0  0  0  0  0  0  0  0999 V2000
    5.6179    0.4821    0.0000 C   0  0  0  0  0  0  0  0  0  0  0  0
    4.5024   -0.5207    0.0000 C   0  0  0  0  0  0  0  0  0  0  0  0
    3.0762   -0.0562    0.0000 C   0  0  0  0  0  0  0  0  0  0  0  0
    1.9607   -1.0590    0.0000 C   0  0  0  0  0  0  0  0  0  0  0  0
    0.5345   -0.5945    0.0000 P   0  0  0  0  0  0  0  0  0  0  0  0
   -0.5810   -1.5973    0.0000 C   0  0  0  0  0  0  0  0  0  0  0  0
   -2.0072   -1.1328    0.0000 C   0  0  0  0  0  0  0  0  0  0  0  0
   -3.1227   -2.1357    0.0000 C   0  0  0  0  0  0  0  0  0  0  0  0
   -4.5489   -1.6711    0.0000 C   0  0  0  0  0  0  0  0  0  0  0  0
    0.2237    0.8730    0.0000 C   0  0  0  0  0  0  0  0  0  0  0  0
   -1.2026    1.3376    0.0000 C   0  0  0  0  0  0  0  0  0  0  0  0
   -1.5134    2.8050    0.0000 C   0  0  0  0  0  0  0  0  0  0  0  0
   -2.9396    3.2696    0.0000 C   0  0  0  0  0  0  0  0  0  0  0  0
  1  2  1  0
  2  3  1  0
  3  4  1  0
  4  5  1  0
  5  6  1  0
  6  7  1  0
  7  8  1  0
  8  9  1  0
  5 10  1  0
 10 11  1  0
 11 12  1  0
 12 13  1  0
M  END
>  <linear_selectivity>  (223) 
23

>  <denticity>  (223) 
1

>  <ligand_class>  (223) 
phosphine

$$$$
P(nBu)3_90C_THF
     RDKit          2D

 13 12  0  0  0  0  0  0  0  0999 V2000
    5.6179    0.4821    0.0000 C   0  0  0  0  0  0  0  0  0  0  0  0
    4.5024   -0.5207    0.0000 C   0  0  0  0  0  0  0  0  0  0  0  0
    3.0762   -0.0562    0.0000 C   0  0  0  0  0  0  0  0  0  0  0  0
    1.9607   -1.0590    0.0000 C   0  0  0  0  0  0  0  0  0  0  0  0
    0.5345   -0.5945    0.0000 P   0  0  0  0  0  0  0  0  0  0  0  0
   -0.5810   -1.5973    0.0000 C   0  0  0  0  0  0  0  0  0  0  0  0
   -2.0072   -1.1328    0.0000 C   0  0  0  0  0  0  0  0  0  0  0  0
   -3.1227   -2.1357    0.0000 C   0  0  0  0  0  0  0  0  0  0  0  0
   -4.5489   -1.6711    0.0000 C   0  0  0  0  0  0  0  0  0  0  0  0
    0.2237    0.8730    0.0000 C   0  0  0  0  0  0  0  0  0  0  0  0
   -1.2026    1.3376    0.0000 C   0  0  0  0  0  0  0  0  0  0  0  0
   -1.5134    2.8050    0.0000 C   0  0  0  0  0  0  0  0  0  0  0  0
   -2.9396    3.2696    0.0000 C   0  0  0  0  0  0  0  0  0  0  0  0
  1  2  1  0
  2  3  1  0
  3  4  1  0
  4  5  1  0
  5  6  1  0
  6  7  1  0
  7  8  1  0
  8  9  1  0
  5 10  1  0
 10 11  1  0
 11 12  1  0
 12 13  1  0
M  END
>  <linear_selectivity>  (224) 
22

>  <denticity>  (224) 
1

>  <ligand_class>  (224) 
phosphine

$$$$
P(nBu)3_90C_dioxane
     RDKit          2D

 13 12  0  0  0  0  0  0  0  0999 V2000
    5.6179    0.4821    0.0000 C   0  0  0  0  0  0  0  0  0  0  0  0
    4.5024   -0.5207    0.0000 C   0  0  0  0  0  0  0  0  0  0  0  0
    3.0762   -0.0562    0.0000 C   0  0  0  0  0  0  0  0  0  0  0  0
    1.9607   -1.0590    0.0000 C   0  0  0  0  0  0  0  0  0  0  0  0
    0.5345   -0.5945    0.0000 P   0  0  0  0  0  0  0  0  0  0  0  0
   -0.5810   -1.5973    0.0000 C   0  0  0  0  0  0  0  0  0  0  0  0
   -2.0072   -1.1328    0.0000 C   0  0  0  0  0  0  0  0  0  0  0  0
   -3.1227   -2.1357    0.0000 C   0  0  0  0  0  0  0  0  0  0  0  0
   -4.5489   -1.6711    0.0000 C   0  0  0  0  0  0  0  0  0  0  0  0
    0.2237    0.8730    0.0000 C   0  0  0  0  0  0  0  0  0  0  0  0
   -1.2026    1.3376    0.0000 C   0  0  0  0  0  0  0  0  0  0  0  0
   -1.5134    2.8050    0.0000 C   0  0  0  0  0  0  0  0  0  0  0  0
   -2.9396    3.2696    0.0000 C   0  0  0  0  0  0  0  0  0  0  0  0
  1  2  1  0
  2  3  1  0
  3  4  1  0
  4  5  1  0
  5  6  1  0
  6  7  1  0
  7  8  1  0
  8  9  1  0
  5 10  1  0
 10 11  1  0
 11 12  1  0
 12 13  1  0
M  END
>  <linear_selectivity>  (225) 
25

>  <denticity>  (225) 
1

>  <ligand_class>  (225) 
phosphine

$$$$
P(nBu)3_90C_hexane
     RDKit          2D

 13 12  0  0  0  0  0  0  0  0999 V2000
    5.6179    0.4821    0.0000 C   0  0  0  0  0  0  0  0  0  0  0  0
    4.5024   -0.5207    0.0000 C   0  0  0  0  0  0  0  0  0  0  0  0
    3.0762   -0.0562    0.0000 C   0  0  0  0  0  0  0  0  0  0  0  0
    1.9607   -1.0590    0.0000 C   0  0  0  0  0  0  0  0  0  0  0  0
    0.5345   -0.5945    0.0000 P   0  0  0  0  0  0  0  0  0  0  0  0
   -0.5810   -1.5973    0.0000 C   0  0  0  0  0  0  0  0  0  0  0  0
   -2.0072   -1.1328    0.0000 C   0  0  0  0  0  0  0  0  0  0  0  0
   -3.1227   -2.1357    0.0000 C   0  0  0  0  0  0  0  0  0  0  0  0
   -4.5489   -1.6711    0.0000 C   0  0  0  0  0  0  0  0  0  0  0  0
    0.2237    0.8730    0.0000 C   0  0  0  0  0  0  0  0  0  0  0  0
   -1.2026    1.3376    0.0000 C   0  0  0  0  0  0  0  0  0  0  0  0
   -1.5134    2.8050    0.0000 C   0  0  0  0  0  0  0  0  0  0  0  0
   -2.9396    3.2696    0.0000 C   0  0  0  0  0  0  0  0  0  0  0  0
  1  2  1  0
  2  3  1  0
  3  4  1  0
  4  5  1  0
  5  6  1  0
  6  7  1  0
  7  8  1  0
  8  9  1  0
  5 10  1  0
 10 11  1  0
 11 12  1  0
 12 13  1  0
M  END
>  <linear_selectivity>  (226) 
25

>  <denticity>  (226) 
1

>  <ligand_class>  (226) 
phosphine

$$$$
P(nBu)3_90C_benzene
     RDKit          2D

 13 12  0  0  0  0  0  0  0  0999 V2000
    5.6179    0.4821    0.0000 C   0  0  0  0  0  0  0  0  0  0  0  0
    4.5024   -0.5207    0.0000 C   0  0  0  0  0  0  0  0  0  0  0  0
    3.0762   -0.0562    0.0000 C   0  0  0  0  0  0  0  0  0  0  0  0
    1.9607   -1.0590    0.0000 C   0  0  0  0  0  0  0  0  0  0  0  0
    0.5345   -0.5945    0.0000 P   0  0  0  0  0  0  0  0  0  0  0  0
   -0.5810   -1.5973    0.0000 C   0  0  0  0  0  0  0  0  0  0  0  0
   -2.0072   -1.1328    0.0000 C   0  0  0  0  0  0  0  0  0  0  0  0
   -3.1227   -2.1357    0.0000 C   0  0  0  0  0  0  0  0  0  0  0  0
   -4.5489   -1.6711    0.0000 C   0  0  0  0  0  0  0  0  0  0  0  0
    0.2237    0.8730    0.0000 C   0  0  0  0  0  0  0  0  0  0  0  0
   -1.2026    1.3376    0.0000 C   0  0  0  0  0  0  0  0  0  0  0  0
   -1.5134    2.8050    0.0000 C   0  0  0  0  0  0  0  0  0  0  0  0
   -2.9396    3.2696    0.0000 C   0  0  0  0  0  0  0  0  0  0  0  0
  1  2  1  0
  2  3  1  0
  3  4  1  0
  4  5  1  0
  5  6  1  0
  6  7  1  0
  7  8  1  0
  8  9  1  0
  5 10  1  0
 10 11  1  0
 11 12  1  0
 12 13  1  0
M  END
>  <linear_selectivity>  (227) 
26

>  <denticity>  (227) 
1

>  <ligand_class>  (227) 
phosphine

$$$$
P(nBu)3_90C_xylene
     RDKit          2D

 13 12  0  0  0  0  0  0  0  0999 V2000
    5.6179    0.4821    0.0000 C   0  0  0  0  0  0  0  0  0  0  0  0
    4.5024   -0.5207    0.0000 C   0  0  0  0  0  0  0  0  0  0  0  0
    3.0762   -0.0562    0.0000 C   0  0  0  0  0  0  0  0  0  0  0  0
    1.9607   -1.0590    0.0000 C   0  0  0  0  0  0  0  0  0  0  0  0
    0.5345   -0.5945    0.0000 P   0  0  0  0  0  0  0  0  0  0  0  0
   -0.5810   -1.5973    0.0000 C   0  0  0  0  0  0  0  0  0  0  0  0
   -2.0072   -1.1328    0.0000 C   0  0  0  0  0  0  0  0  0  0  0  0
   -3.1227   -2.1357    0.0000 C   0  0  0  0  0  0  0  0  0  0  0  0
   -4.5489   -1.6711    0.0000 C   0  0  0  0  0  0  0  0  0  0  0  0
    0.2237    0.8730    0.0000 C   0  0  0  0  0  0  0  0  0  0  0  0
   -1.2026    1.3376    0.0000 C   0  0  0  0  0  0  0  0  0  0  0  0
   -1.5134    2.8050    0.0000 C   0  0  0  0  0  0  0  0  0  0  0  0
   -2.9396    3.2696    0.0000 C   0  0  0  0  0  0  0  0  0  0  0  0
  1  2  1  0
  2  3  1  0
  3  4  1  0
  4  5  1  0
  5  6  1  0
  6  7  1  0
  7  8  1  0
  8  9  1  0
  5 10  1  0
 10 11  1  0
 11 12  1  0
 12 13  1  0
M  END
>  <linear_selectivity>  (228) 
26

>  <denticity>  (228) 
1

>  <ligand_class>  (228) 
phosphine

$$$$
P(nBu)3_100C_THF
     RDKit          2D

 13 12  0  0  0  0  0  0  0  0999 V2000
    5.6179    0.4821    0.0000 C   0  0  0  0  0  0  0  0  0  0  0  0
    4.5024   -0.5207    0.0000 C   0  0  0  0  0  0  0  0  0  0  0  0
    3.0762   -0.0562    0.0000 C   0  0  0  0  0  0  0  0  0  0  0  0
    1.9607   -1.0590    0.0000 C   0  0  0  0  0  0  0  0  0  0  0  0
    0.5345   -0.5945    0.0000 P   0  0  0  0  0  0  0  0  0  0  0  0
   -0.5810   -1.5973    0.0000 C   0  0  0  0  0  0  0  0  0  0  0  0
   -2.0072   -1.1328    0.0000 C   0  0  0  0  0  0  0  0  0  0  0  0
   -3.1227   -2.1357    0.0000 C   0  0  0  0  0  0  0  0  0  0  0  0
   -4.5489   -1.6711    0.0000 C   0  0  0  0  0  0  0  0  0  0  0  0
    0.2237    0.8730    0.0000 C   0  0  0  0  0  0  0  0  0  0  0  0
   -1.2026    1.3376    0.0000 C   0  0  0  0  0  0  0  0  0  0  0  0
   -1.5134    2.8050    0.0000 C   0  0  0  0  0  0  0  0  0  0  0  0
   -2.9396    3.2696    0.0000 C   0  0  0  0  0  0  0  0  0  0  0  0
  1  2  1  0
  2  3  1  0
  3  4  1  0
  4  5  1  0
  5  6  1  0
  6  7  1  0
  7  8  1  0
  8  9  1  0
  5 10  1  0
 10 11  1  0
 11 12  1  0
 12 13  1  0
M  END
>  <linear_selectivity>  (229) 
21

>  <denticity>  (229) 
1

>  <ligand_class>  (229) 
phosphine

$$$$
P(nBu)3_100C_dioxane
     RDKit          2D

 13 12  0  0  0  0  0  0  0  0999 V2000
    5.6179    0.4821    0.0000 C   0  0  0  0  0  0  0  0  0  0  0  0
    4.5024   -0.5207    0.0000 C   0  0  0  0  0  0  0  0  0  0  0  0
    3.0762   -0.0562    0.0000 C   0  0  0  0  0  0  0  0  0  0  0  0
    1.9607   -1.0590    0.0000 C   0  0  0  0  0  0  0  0  0  0  0  0
    0.5345   -0.5945    0.0000 P   0  0  0  0  0  0  0  0  0  0  0  0
   -0.5810   -1.5973    0.0000 C   0  0  0  0  0  0  0  0  0  0  0  0
   -2.0072   -1.1328    0.0000 C   0  0  0  0  0  0  0  0  0  0  0  0
   -3.1227   -2.1357    0.0000 C   0  0  0  0  0  0  0  0  0  0  0  0
   -4.5489   -1.6711    0.0000 C   0  0  0  0  0  0  0  0  0  0  0  0
    0.2237    0.8730    0.0000 C   0  0  0  0  0  0  0  0  0  0  0  0
   -1.2026    1.3376    0.0000 C   0  0  0  0  0  0  0  0  0  0  0  0
   -1.5134    2.8050    0.0000 C   0  0  0  0  0  0  0  0  0  0  0  0
   -2.9396    3.2696    0.0000 C   0  0  0  0  0  0  0  0  0  0  0  0
  1  2  1  0
  2  3  1  0
  3  4  1  0
  4  5  1  0
  5  6  1  0
  6  7  1  0
  7  8  1  0
  8  9  1  0
  5 10  1  0
 10 11  1  0
 11 12  1  0
 12 13  1  0
M  END
>  <linear_selectivity>  (230) 
22

>  <denticity>  (230) 
1

>  <ligand_class>  (230) 
phosphine

$$$$
P(nBu)3_100C_hexane
     RDKit          2D

 13 12  0  0  0  0  0  0  0  0999 V2000
    5.6179    0.4821    0.0000 C   0  0  0  0  0  0  0  0  0  0  0  0
    4.5024   -0.5207    0.0000 C   0  0  0  0  0  0  0  0  0  0  0  0
    3.0762   -0.0562    0.0000 C   0  0  0  0  0  0  0  0  0  0  0  0
    1.9607   -1.0590    0.0000 C   0  0  0  0  0  0  0  0  0  0  0  0
    0.5345   -0.5945    0.0000 P   0  0  0  0  0  0  0  0  0  0  0  0
   -0.5810   -1.5973    0.0000 C   0  0  0  0  0  0  0  0  0  0  0  0
   -2.0072   -1.1328    0.0000 C   0  0  0  0  0  0  0  0  0  0  0  0
   -3.1227   -2.1357    0.0000 C   0  0  0  0  0  0  0  0  0  0  0  0
   -4.5489   -1.6711    0.0000 C   0  0  0  0  0  0  0  0  0  0  0  0
    0.2237    0.8730    0.0000 C   0  0  0  0  0  0  0  0  0  0  0  0
   -1.2026    1.3376    0.0000 C   0  0  0  0  0  0  0  0  0  0  0  0
   -1.5134    2.8050    0.0000 C   0  0  0  0  0  0  0  0  0  0  0  0
   -2.9396    3.2696    0.0000 C   0  0  0  0  0  0  0  0  0  0  0  0
  1  2  1  0
  2  3  1  0
  3  4  1  0
  4  5  1  0
  5  6  1  0
  6  7  1  0
  7  8  1  0
  8  9  1  0
  5 10  1  0
 10 11  1  0
 11 12  1  0
 12 13  1  0
M  END
>  <linear_selectivity>  (231) 
24

>  <denticity>  (231) 
1

>  <ligand_class>  (231) 
phosphine

$$$$
P(nBu)3_100C_benzene
     RDKit          2D

 13 12  0  0  0  0  0  0  0  0999 V2000
    5.6179    0.4821    0.0000 C   0  0  0  0  0  0  0  0  0  0  0  0
    4.5024   -0.5207    0.0000 C   0  0  0  0  0  0  0  0  0  0  0  0
    3.0762   -0.0562    0.0000 C   0  0  0  0  0  0  0  0  0  0  0  0
    1.9607   -1.0590    0.0000 C   0  0  0  0  0  0  0  0  0  0  0  0
    0.5345   -0.5945    0.0000 P   0  0  0  0  0  0  0  0  0  0  0  0
   -0.5810   -1.5973    0.0000 C   0  0  0  0  0  0  0  0  0  0  0  0
   -2.0072   -1.1328    0.0000 C   0  0  0  0  0  0  0  0  0  0  0  0
   -3.1227   -2.1357    0.0000 C   0  0  0  0  0  0  0  0  0  0  0  0
   -4.5489   -1.6711    0.0000 C   0  0  0  0  0  0  0  0  0  0  0  0
    0.2237    0.8730    0.0000 C   0  0  0  0  0  0  0  0  0  0  0  0
   -1.2026    1.3376    0.0000 C   0  0  0  0  0  0  0  0  0  0  0  0
   -1.5134    2.8050    0.0000 C   0  0  0  0  0  0  0  0  0  0  0  0
   -2.9396    3.2696    0.0000 C   0  0  0  0  0  0  0  0  0  0  0  0
  1  2  1  0
  2  3  1  0
  3  4  1  0
  4  5  1  0
  5  6  1  0
  6  7  1  0
  7  8  1  0
  8  9  1  0
  5 10  1  0
 10 11  1  0
 11 12  1  0
 12 13  1  0
M  END
>  <linear_selectivity>  (232) 
23

>  <denticity>  (232) 
1

>  <ligand_class>  (232) 
phosphine

$$$$
P(nBu)3_100C_xylene
     RDKit          2D

 13 12  0  0  0  0  0  0  0  0999 V2000
    5.6179    0.4821    0.0000 C   0  0  0  0  0  0  0  0  0  0  0  0
    4.5024   -0.5207    0.0000 C   0  0  0  0  0  0  0  0  0  0  0  0
    3.0762   -0.0562    0.0000 C   0  0  0  0  0  0  0  0  0  0  0  0
    1.9607   -1.0590    0.0000 C   0  0  0  0  0  0  0  0  0  0  0  0
    0.5345   -0.5945    0.0000 P   0  0  0  0  0  0  0  0  0  0  0  0
   -0.5810   -1.5973    0.0000 C   0  0  0  0  0  0  0  0  0  0  0  0
   -2.0072   -1.1328    0.0000 C   0  0  0  0  0  0  0  0  0  0  0  0
   -3.1227   -2.1357    0.0000 C   0  0  0  0  0  0  0  0  0  0  0  0
   -4.5489   -1.6711    0.0000 C   0  0  0  0  0  0  0  0  0  0  0  0
    0.2237    0.8730    0.0000 C   0  0  0  0  0  0  0  0  0  0  0  0
   -1.2026    1.3376    0.0000 C   0  0  0  0  0  0  0  0  0  0  0  0
   -1.5134    2.8050    0.0000 C   0  0  0  0  0  0  0  0  0  0  0  0
   -2.9396    3.2696    0.0000 C   0  0  0  0  0  0  0  0  0  0  0  0
  1  2  1  0
  2  3  1  0
  3  4  1  0
  4  5  1  0
  5  6  1  0
  6  7  1  0
  7  8  1  0
  8  9  1  0
  5 10  1  0
 10 11  1  0
 11 12  1  0
 12 13  1  0
M  END
>  <linear_selectivity>  (233) 
27

>  <denticity>  (233) 
1

>  <ligand_class>  (233) 
phosphine

$$$$
P(nBu)3_110C_toluene
     RDKit          2D

 13 12  0  0  0  0  0  0  0  0999 V2000
    5.6179    0.4821    0.0000 C   0  0  0  0  0  0  0  0  0  0  0  0
    4.5024   -0.5207    0.0000 C   0  0  0  0  0  0  0  0  0  0  0  0
    3.0762   -0.0562    0.0000 C   0  0  0  0  0  0  0  0  0  0  0  0
    1.9607   -1.0590    0.0000 C   0  0  0  0  0  0  0  0  0  0  0  0
    0.5345   -0.5945    0.0000 P   0  0  0  0  0  0  0  0  0  0  0  0
   -0.5810   -1.5973    0.0000 C   0  0  0  0  0  0  0  0  0  0  0  0
   -2.0072   -1.1328    0.0000 C   0  0  0  0  0  0  0  0  0  0  0  0
   -3.1227   -2.1357    0.0000 C   0  0  0  0  0  0  0  0  0  0  0  0
   -4.5489   -1.6711    0.0000 C   0  0  0  0  0  0  0  0  0  0  0  0
    0.2237    0.8730    0.0000 C   0  0  0  0  0  0  0  0  0  0  0  0
   -1.2026    1.3376    0.0000 C   0  0  0  0  0  0  0  0  0  0  0  0
   -1.5134    2.8050    0.0000 C   0  0  0  0  0  0  0  0  0  0  0  0
   -2.9396    3.2696    0.0000 C   0  0  0  0  0  0  0  0  0  0  0  0
  1  2  1  0
  2  3  1  0
  3  4  1  0
  4  5  1  0
  5  6  1  0
  6  7  1  0
  7  8  1  0
  8  9  1  0
  5 10  1  0
 10 11  1  0
 11 12  1  0
 12 13  1  0
M  END
>  <linear_selectivity>  (234) 
20

>  <denticity>  (234) 
1

>  <ligand_class>  (234) 
phosphine

$$$$
P(nBu)3_110C_THF
     RDKit          2D

 13 12  0  0  0  0  0  0  0  0999 V2000
    5.6179    0.4821    0.0000 C   0  0  0  0  0  0  0  0  0  0  0  0
    4.5024   -0.5207    0.0000 C   0  0  0  0  0  0  0  0  0  0  0  0
    3.0762   -0.0562    0.0000 C   0  0  0  0  0  0  0  0  0  0  0  0
    1.9607   -1.0590    0.0000 C   0  0  0  0  0  0  0  0  0  0  0  0
    0.5345   -0.5945    0.0000 P   0  0  0  0  0  0  0  0  0  0  0  0
   -0.5810   -1.5973    0.0000 C   0  0  0  0  0  0  0  0  0  0  0  0
   -2.0072   -1.1328    0.0000 C   0  0  0  0  0  0  0  0  0  0  0  0
   -3.1227   -2.1357    0.0000 C   0  0  0  0  0  0  0  0  0  0  0  0
   -4.5489   -1.6711    0.0000 C   0  0  0  0  0  0  0  0  0  0  0  0
    0.2237    0.8730    0.0000 C   0  0  0  0  0  0  0  0  0  0  0  0
   -1.2026    1.3376    0.0000 C   0  0  0  0  0  0  0  0  0  0  0  0
   -1.5134    2.8050    0.0000 C   0  0  0  0  0  0  0  0  0  0  0  0
   -2.9396    3.2696    0.0000 C   0  0  0  0  0  0  0  0  0  0  0  0
  1  2  1  0
  2  3  1  0
  3  4  1  0
  4  5  1  0
  5  6  1  0
  6  7  1  0
  7  8  1  0
  8  9  1  0
  5 10  1  0
 10 11  1  0
 11 12  1  0
 12 13  1  0
M  END
>  <linear_selectivity>  (235) 
19

>  <denticity>  (235) 
1

>  <ligand_class>  (235) 
phosphine

$$$$
P(nBu)3_110C_dioxane
     RDKit          2D

 13 12  0  0  0  0  0  0  0  0999 V2000
    5.6179    0.4821    0.0000 C   0  0  0  0  0  0  0  0  0  0  0  0
    4.5024   -0.5207    0.0000 C   0  0  0  0  0  0  0  0  0  0  0  0
    3.0762   -0.0562    0.0000 C   0  0  0  0  0  0  0  0  0  0  0  0
    1.9607   -1.0590    0.0000 C   0  0  0  0  0  0  0  0  0  0  0  0
    0.5345   -0.5945    0.0000 P   0  0  0  0  0  0  0  0  0  0  0  0
   -0.5810   -1.5973    0.0000 C   0  0  0  0  0  0  0  0  0  0  0  0
   -2.0072   -1.1328    0.0000 C   0  0  0  0  0  0  0  0  0  0  0  0
   -3.1227   -2.1357    0.0000 C   0  0  0  0  0  0  0  0  0  0  0  0
   -4.5489   -1.6711    0.0000 C   0  0  0  0  0  0  0  0  0  0  0  0
    0.2237    0.8730    0.0000 C   0  0  0  0  0  0  0  0  0  0  0  0
   -1.2026    1.3376    0.0000 C   0  0  0  0  0  0  0  0  0  0  0  0
   -1.5134    2.8050    0.0000 C   0  0  0  0  0  0  0  0  0  0  0  0
   -2.9396    3.2696    0.0000 C   0  0  0  0  0  0  0  0  0  0  0  0
  1  2  1  0
  2  3  1  0
  3  4  1  0
  4  5  1  0
  5  6  1  0
  6  7  1  0
  7  8  1  0
  8  9  1  0
  5 10  1  0
 10 11  1  0
 11 12  1  0
 12 13  1  0
M  END
>  <linear_selectivity>  (236) 
24

>  <denticity>  (236) 
1

>  <ligand_class>  (236) 
phosphine

$$$$
P(nBu)3_110C_hexane
     RDKit          2D

 13 12  0  0  0  0  0  0  0  0999 V2000
    5.6179    0.4821    0.0000 C   0  0  0  0  0  0  0  0  0  0  0  0
    4.5024   -0.5207    0.0000 C   0  0  0  0  0  0  0  0  0  0  0  0
    3.0762   -0.0562    0.0000 C   0  0  0  0  0  0  0  0  0  0  0  0
    1.9607   -1.0590    0.0000 C   0  0  0  0  0  0  0  0  0  0  0  0
    0.5345   -0.5945    0.0000 P   0  0  0  0  0  0  0  0  0  0  0  0
   -0.5810   -1.5973    0.0000 C   0  0  0  0  0  0  0  0  0  0  0  0
   -2.0072   -1.1328    0.0000 C   0  0  0  0  0  0  0  0  0  0  0  0
   -3.1227   -2.1357    0.0000 C   0  0  0  0  0  0  0  0  0  0  0  0
   -4.5489   -1.6711    0.0000 C   0  0  0  0  0  0  0  0  0  0  0  0
    0.2237    0.8730    0.0000 C   0  0  0  0  0  0  0  0  0  0  0  0
   -1.2026    1.3376    0.0000 C   0  0  0  0  0  0  0  0  0  0  0  0
   -1.5134    2.8050    0.0000 C   0  0  0  0  0  0  0  0  0  0  0  0
   -2.9396    3.2696    0.0000 C   0  0  0  0  0  0  0  0  0  0  0  0
  1  2  1  0
  2  3  1  0
  3  4  1  0
  4  5  1  0
  5  6  1  0
  6  7  1  0
  7  8  1  0
  8  9  1  0
  5 10  1  0
 10 11  1  0
 11 12  1  0
 12 13  1  0
M  END
>  <linear_selectivity>  (237) 
23

>  <denticity>  (237) 
1

>  <ligand_class>  (237) 
phosphine

$$$$
P(nBu)3_110C_benzene
     RDKit          2D

 13 12  0  0  0  0  0  0  0  0999 V2000
    5.6179    0.4821    0.0000 C   0  0  0  0  0  0  0  0  0  0  0  0
    4.5024   -0.5207    0.0000 C   0  0  0  0  0  0  0  0  0  0  0  0
    3.0762   -0.0562    0.0000 C   0  0  0  0  0  0  0  0  0  0  0  0
    1.9607   -1.0590    0.0000 C   0  0  0  0  0  0  0  0  0  0  0  0
    0.5345   -0.5945    0.0000 P   0  0  0  0  0  0  0  0  0  0  0  0
   -0.5810   -1.5973    0.0000 C   0  0  0  0  0  0  0  0  0  0  0  0
   -2.0072   -1.1328    0.0000 C   0  0  0  0  0  0  0  0  0  0  0  0
   -3.1227   -2.1357    0.0000 C   0  0  0  0  0  0  0  0  0  0  0  0
   -4.5489   -1.6711    0.0000 C   0  0  0  0  0  0  0  0  0  0  0  0
    0.2237    0.8730    0.0000 C   0  0  0  0  0  0  0  0  0  0  0  0
   -1.2026    1.3376    0.0000 C   0  0  0  0  0  0  0  0  0  0  0  0
   -1.5134    2.8050    0.0000 C   0  0  0  0  0  0  0  0  0  0  0  0
   -2.9396    3.2696    0.0000 C   0  0  0  0  0  0  0  0  0  0  0  0
  1  2  1  0
  2  3  1  0
  3  4  1  0
  4  5  1  0
  5  6  1  0
  6  7  1  0
  7  8  1  0
  8  9  1  0
  5 10  1  0
 10 11  1  0
 11 12  1  0
 12 13  1  0
M  END
>  <linear_selectivity>  (238) 
18

>  <denticity>  (238) 
1

>  <ligand_class>  (238) 
phosphine

$$$$
P(nBu)3_110C_xylene
     RDKit          2D

 13 12  0  0  0  0  0  0  0  0999 V2000
    5.6179    0.4821    0.0000 C   0  0  0  0  0  0  0  0  0  0  0  0
    4.5024   -0.5207    0.0000 C   0  0  0  0  0  0  0  0  0  0  0  0
    3.0762   -0.0562    0.0000 C   0  0  0  0  0  0  0  0  0  0  0  0
    1.9607   -1.0590    0.0000 C   0  0  0  0  0  0  0  0  0  0  0  0
    0.5345   -0.5945    0.0000 P   0  0  0  0  0  0  0  0  0  0  0  0
   -0.5810   -1.5973    0.0000 C   0  0  0  0  0  0  0  0  0  0  0  0
   -2.0072   -1.1328    0.0000 C   0  0  0  0  0  0  0  0  0  0  0  0
   -3.1227   -2.1357    0.0000 C   0  0  0  0  0  0  0  0  0  0  0  0
   -4.5489   -1.6711    0.0000 C   0  0  0  0  0  0  0  0  0  0  0  0
    0.2237    0.8730    0.0000 C   0  0  0  0  0  0  0  0  0  0  0  0
   -1.2026    1.3376    0.0000 C   0  0  0  0  0  0  0  0  0  0  0  0
   -1.5134    2.8050    0.0000 C   0  0  0  0  0  0  0  0  0  0  0  0
   -2.9396    3.2696    0.0000 C   0  0  0  0  0  0  0  0  0  0  0  0
  1  2  1  0
  2  3  1  0
  3  4  1  0
  4  5  1  0
  5  6  1  0
  6  7  1  0
  7  8  1  0
  8  9  1  0
  5 10  1  0
 10 11  1  0
 11 12  1  0
 12 13  1  0
M  END
>  <linear_selectivity>  (239) 
23

>  <denticity>  (239) 
1

>  <ligand_class>  (239) 
phosphine

$$$$
P(nBu)3_120C_dioxane
     RDKit          2D

 13 12  0  0  0  0  0  0  0  0999 V2000
    5.6179    0.4821    0.0000 C   0  0  0  0  0  0  0  0  0  0  0  0
    4.5024   -0.5207    0.0000 C   0  0  0  0  0  0  0  0  0  0  0  0
    3.0762   -0.0562    0.0000 C   0  0  0  0  0  0  0  0  0  0  0  0
    1.9607   -1.0590    0.0000 C   0  0  0  0  0  0  0  0  0  0  0  0
    0.5345   -0.5945    0.0000 P   0  0  0  0  0  0  0  0  0  0  0  0
   -0.5810   -1.5973    0.0000 C   0  0  0  0  0  0  0  0  0  0  0  0
   -2.0072   -1.1328    0.0000 C   0  0  0  0  0  0  0  0  0  0  0  0
   -3.1227   -2.1357    0.0000 C   0  0  0  0  0  0  0  0  0  0  0  0
   -4.5489   -1.6711    0.0000 C   0  0  0  0  0  0  0  0  0  0  0  0
    0.2237    0.8730    0.0000 C   0  0  0  0  0  0  0  0  0  0  0  0
   -1.2026    1.3376    0.0000 C   0  0  0  0  0  0  0  0  0  0  0  0
   -1.5134    2.8050    0.0000 C   0  0  0  0  0  0  0  0  0  0  0  0
   -2.9396    3.2696    0.0000 C   0  0  0  0  0  0  0  0  0  0  0  0
  1  2  1  0
  2  3  1  0
  3  4  1  0
  4  5  1  0
  5  6  1  0
  6  7  1  0
  7  8  1  0
  8  9  1  0
  5 10  1  0
 10 11  1  0
 11 12  1  0
 12 13  1  0
M  END
>  <linear_selectivity>  (240) 
20

>  <denticity>  (240) 
1

>  <ligand_class>  (240) 
phosphine

$$$$
P(nBu)3_120C_hexane
     RDKit          2D

 13 12  0  0  0  0  0  0  0  0999 V2000
    5.6179    0.4821    0.0000 C   0  0  0  0  0  0  0  0  0  0  0  0
    4.5024   -0.5207    0.0000 C   0  0  0  0  0  0  0  0  0  0  0  0
    3.0762   -0.0562    0.0000 C   0  0  0  0  0  0  0  0  0  0  0  0
    1.9607   -1.0590    0.0000 C   0  0  0  0  0  0  0  0  0  0  0  0
    0.5345   -0.5945    0.0000 P   0  0  0  0  0  0  0  0  0  0  0  0
   -0.5810   -1.5973    0.0000 C   0  0  0  0  0  0  0  0  0  0  0  0
   -2.0072   -1.1328    0.0000 C   0  0  0  0  0  0  0  0  0  0  0  0
   -3.1227   -2.1357    0.0000 C   0  0  0  0  0  0  0  0  0  0  0  0
   -4.5489   -1.6711    0.0000 C   0  0  0  0  0  0  0  0  0  0  0  0
    0.2237    0.8730    0.0000 C   0  0  0  0  0  0  0  0  0  0  0  0
   -1.2026    1.3376    0.0000 C   0  0  0  0  0  0  0  0  0  0  0  0
   -1.5134    2.8050    0.0000 C   0  0  0  0  0  0  0  0  0  0  0  0
   -2.9396    3.2696    0.0000 C   0  0  0  0  0  0  0  0  0  0  0  0
  1  2  1  0
  2  3  1  0
  3  4  1  0
  4  5  1  0
  5  6  1  0
  6  7  1  0
  7  8  1  0
  8  9  1  0
  5 10  1  0
 10 11  1  0
 11 12  1  0
 12 13  1  0
M  END
>  <linear_selectivity>  (241) 
24

>  <denticity>  (241) 
1

>  <ligand_class>  (241) 
phosphine

$$$$
P(nBu)3_120C_benzene
     RDKit          2D

 13 12  0  0  0  0  0  0  0  0999 V2000
    5.6179    0.4821    0.0000 C   0  0  0  0  0  0  0  0  0  0  0  0
    4.5024   -0.5207    0.0000 C   0  0  0  0  0  0  0  0  0  0  0  0
    3.0762   -0.0562    0.0000 C   0  0  0  0  0  0  0  0  0  0  0  0
    1.9607   -1.0590    0.0000 C   0  0  0  0  0  0  0  0  0  0  0  0
    0.5345   -0.5945    0.0000 P   0  0  0  0  0  0  0  0  0  0  0  0
   -0.5810   -1.5973    0.0000 C   0  0  0  0  0  0  0  0  0  0  0  0
   -2.0072   -1.1328    0.0000 C   0  0  0  0  0  0  0  0  0  0  0  0
   -3.1227   -2.1357    0.0000 C   0  0  0  0  0  0  0  0  0  0  0  0
   -4.5489   -1.6711    0.0000 C   0  0  0  0  0  0  0  0  0  0  0  0
    0.2237    0.8730    0.0000 C   0  0  0  0  0  0  0  0  0  0  0  0
   -1.2026    1.3376    0.0000 C   0  0  0  0  0  0  0  0  0  0  0  0
   -1.5134    2.8050    0.0000 C   0  0  0  0  0  0  0  0  0  0  0  0
   -2.9396    3.2696    0.0000 C   0  0  0  0  0  0  0  0  0  0  0  0
  1  2  1  0
  2  3  1  0
  3  4  1  0
  4  5  1  0
  5  6  1  0
  6  7  1  0
  7  8  1  0
  8  9  1  0
  5 10  1  0
 10 11  1  0
 11 12  1  0
 12 13  1  0
M  END
>  <linear_selectivity>  (242) 
17

>  <denticity>  (242) 
1

>  <ligand_class>  (242) 
phosphine

$$$$
P(nBu)3_120C_xylene
     RDKit          2D

 13 12  0  0  0  0  0  0  0  0999 V2000
    5.6179    0.4821    0.0000 C   0  0  0  0  0  0  0  0  0  0  0  0
    4.5024   -0.5207    0.0000 C   0  0  0  0  0  0  0  0  0  0  0  0
    3.0762   -0.0562    0.0000 C   0  0  0  0  0  0  0  0  0  0  0  0
    1.9607   -1.0590    0.0000 C   0  0  0  0  0  0  0  0  0  0  0  0
    0.5345   -0.5945    0.0000 P   0  0  0  0  0  0  0  0  0  0  0  0
   -0.5810   -1.5973    0.0000 C   0  0  0  0  0  0  0  0  0  0  0  0
   -2.0072   -1.1328    0.0000 C   0  0  0  0  0  0  0  0  0  0  0  0
   -3.1227   -2.1357    0.0000 C   0  0  0  0  0  0  0  0  0  0  0  0
   -4.5489   -1.6711    0.0000 C   0  0  0  0  0  0  0  0  0  0  0  0
    0.2237    0.8730    0.0000 C   0  0  0  0  0  0  0  0  0  0  0  0
   -1.2026    1.3376    0.0000 C   0  0  0  0  0  0  0  0  0  0  0  0
   -1.5134    2.8050    0.0000 C   0  0  0  0  0  0  0  0  0  0  0  0
   -2.9396    3.2696    0.0000 C   0  0  0  0  0  0  0  0  0  0  0  0
  1  2  1  0
  2  3  1  0
  3  4  1  0
  4  5  1  0
  5  6  1  0
  6  7  1  0
  7  8  1  0
  8  9  1  0
  5 10  1  0
 10 11  1  0
 11 12  1  0
 12 13  1  0
M  END
>  <linear_selectivity>  (243) 
18

>  <denticity>  (243) 
1

>  <ligand_class>  (243) 
phosphine

$$$$
P(nBu)3_130C_toluene
     RDKit          2D

 13 12  0  0  0  0  0  0  0  0999 V2000
    5.6179    0.4821    0.0000 C   0  0  0  0  0  0  0  0  0  0  0  0
    4.5024   -0.5207    0.0000 C   0  0  0  0  0  0  0  0  0  0  0  0
    3.0762   -0.0562    0.0000 C   0  0  0  0  0  0  0  0  0  0  0  0
    1.9607   -1.0590    0.0000 C   0  0  0  0  0  0  0  0  0  0  0  0
    0.5345   -0.5945    0.0000 P   0  0  0  0  0  0  0  0  0  0  0  0
   -0.5810   -1.5973    0.0000 C   0  0  0  0  0  0  0  0  0  0  0  0
   -2.0072   -1.1328    0.0000 C   0  0  0  0  0  0  0  0  0  0  0  0
   -3.1227   -2.1357    0.0000 C   0  0  0  0  0  0  0  0  0  0  0  0
   -4.5489   -1.6711    0.0000 C   0  0  0  0  0  0  0  0  0  0  0  0
    0.2237    0.8730    0.0000 C   0  0  0  0  0  0  0  0  0  0  0  0
   -1.2026    1.3376    0.0000 C   0  0  0  0  0  0  0  0  0  0  0  0
   -1.5134    2.8050    0.0000 C   0  0  0  0  0  0  0  0  0  0  0  0
   -2.9396    3.2696    0.0000 C   0  0  0  0  0  0  0  0  0  0  0  0
  1  2  1  0
  2  3  1  0
  3  4  1  0
  4  5  1  0
  5  6  1  0
  6  7  1  0
  7  8  1  0
  8  9  1  0
  5 10  1  0
 10 11  1  0
 11 12  1  0
 12 13  1  0
M  END
>  <linear_selectivity>  (244) 
18

>  <denticity>  (244) 
1

>  <ligand_class>  (244) 
phosphine

$$$$
P(nBu)3_130C_THF
     RDKit          2D

 13 12  0  0  0  0  0  0  0  0999 V2000
    5.6179    0.4821    0.0000 C   0  0  0  0  0  0  0  0  0  0  0  0
    4.5024   -0.5207    0.0000 C   0  0  0  0  0  0  0  0  0  0  0  0
    3.0762   -0.0562    0.0000 C   0  0  0  0  0  0  0  0  0  0  0  0
    1.9607   -1.0590    0.0000 C   0  0  0  0  0  0  0  0  0  0  0  0
    0.5345   -0.5945    0.0000 P   0  0  0  0  0  0  0  0  0  0  0  0
   -0.5810   -1.5973    0.0000 C   0  0  0  0  0  0  0  0  0  0  0  0
   -2.0072   -1.1328    0.0000 C   0  0  0  0  0  0  0  0  0  0  0  0
   -3.1227   -2.1357    0.0000 C   0  0  0  0  0  0  0  0  0  0  0  0
   -4.5489   -1.6711    0.0000 C   0  0  0  0  0  0  0  0  0  0  0  0
    0.2237    0.8730    0.0000 C   0  0  0  0  0  0  0  0  0  0  0  0
   -1.2026    1.3376    0.0000 C   0  0  0  0  0  0  0  0  0  0  0  0
   -1.5134    2.8050    0.0000 C   0  0  0  0  0  0  0  0  0  0  0  0
   -2.9396    3.2696    0.0000 C   0  0  0  0  0  0  0  0  0  0  0  0
  1  2  1  0
  2  3  1  0
  3  4  1  0
  4  5  1  0
  5  6  1  0
  6  7  1  0
  7  8  1  0
  8  9  1  0
  5 10  1  0
 10 11  1  0
 11 12  1  0
 12 13  1  0
M  END
>  <linear_selectivity>  (245) 
16

>  <denticity>  (245) 
1

>  <ligand_class>  (245) 
phosphine

$$$$
P(nBu)3_130C_dioxane
     RDKit          2D

 13 12  0  0  0  0  0  0  0  0999 V2000
    5.6179    0.4821    0.0000 C   0  0  0  0  0  0  0  0  0  0  0  0
    4.5024   -0.5207    0.0000 C   0  0  0  0  0  0  0  0  0  0  0  0
    3.0762   -0.0562    0.0000 C   0  0  0  0  0  0  0  0  0  0  0  0
    1.9607   -1.0590    0.0000 C   0  0  0  0  0  0  0  0  0  0  0  0
    0.5345   -0.5945    0.0000 P   0  0  0  0  0  0  0  0  0  0  0  0
   -0.5810   -1.5973    0.0000 C   0  0  0  0  0  0  0  0  0  0  0  0
   -2.0072   -1.1328    0.0000 C   0  0  0  0  0  0  0  0  0  0  0  0
   -3.1227   -2.1357    0.0000 C   0  0  0  0  0  0  0  0  0  0  0  0
   -4.5489   -1.6711    0.0000 C   0  0  0  0  0  0  0  0  0  0  0  0
    0.2237    0.8730    0.0000 C   0  0  0  0  0  0  0  0  0  0  0  0
   -1.2026    1.3376    0.0000 C   0  0  0  0  0  0  0  0  0  0  0  0
   -1.5134    2.8050    0.0000 C   0  0  0  0  0  0  0  0  0  0  0  0
   -2.9396    3.2696    0.0000 C   0  0  0  0  0  0  0  0  0  0  0  0
  1  2  1  0
  2  3  1  0
  3  4  1  0
  4  5  1  0
  5  6  1  0
  6  7  1  0
  7  8  1  0
  8  9  1  0
  5 10  1  0
 10 11  1  0
 11 12  1  0
 12 13  1  0
M  END
>  <linear_selectivity>  (246) 
19

>  <denticity>  (246) 
1

>  <ligand_class>  (246) 
phosphine

$$$$
P(nBu)3_130C_hexane
     RDKit          2D

 13 12  0  0  0  0  0  0  0  0999 V2000
    5.6179    0.4821    0.0000 C   0  0  0  0  0  0  0  0  0  0  0  0
    4.5024   -0.5207    0.0000 C   0  0  0  0  0  0  0  0  0  0  0  0
    3.0762   -0.0562    0.0000 C   0  0  0  0  0  0  0  0  0  0  0  0
    1.9607   -1.0590    0.0000 C   0  0  0  0  0  0  0  0  0  0  0  0
    0.5345   -0.5945    0.0000 P   0  0  0  0  0  0  0  0  0  0  0  0
   -0.5810   -1.5973    0.0000 C   0  0  0  0  0  0  0  0  0  0  0  0
   -2.0072   -1.1328    0.0000 C   0  0  0  0  0  0  0  0  0  0  0  0
   -3.1227   -2.1357    0.0000 C   0  0  0  0  0  0  0  0  0  0  0  0
   -4.5489   -1.6711    0.0000 C   0  0  0  0  0  0  0  0  0  0  0  0
    0.2237    0.8730    0.0000 C   0  0  0  0  0  0  0  0  0  0  0  0
   -1.2026    1.3376    0.0000 C   0  0  0  0  0  0  0  0  0  0  0  0
   -1.5134    2.8050    0.0000 C   0  0  0  0  0  0  0  0  0  0  0  0
   -2.9396    3.2696    0.0000 C   0  0  0  0  0  0  0  0  0  0  0  0
  1  2  1  0
  2  3  1  0
  3  4  1  0
  4  5  1  0
  5  6  1  0
  6  7  1  0
  7  8  1  0
  8  9  1  0
  5 10  1  0
 10 11  1  0
 11 12  1  0
 12 13  1  0
M  END
>  <linear_selectivity>  (247) 
24

>  <denticity>  (247) 
1

>  <ligand_class>  (247) 
phosphine

$$$$
P(nBu)3_130C_benzene
     RDKit          2D

 13 12  0  0  0  0  0  0  0  0999 V2000
    5.6179    0.4821    0.0000 C   0  0  0  0  0  0  0  0  0  0  0  0
    4.5024   -0.5207    0.0000 C   0  0  0  0  0  0  0  0  0  0  0  0
    3.0762   -0.0562    0.0000 C   0  0  0  0  0  0  0  0  0  0  0  0
    1.9607   -1.0590    0.0000 C   0  0  0  0  0  0  0  0  0  0  0  0
    0.5345   -0.5945    0.0000 P   0  0  0  0  0  0  0  0  0  0  0  0
   -0.5810   -1.5973    0.0000 C   0  0  0  0  0  0  0  0  0  0  0  0
   -2.0072   -1.1328    0.0000 C   0  0  0  0  0  0  0  0  0  0  0  0
   -3.1227   -2.1357    0.0000 C   0  0  0  0  0  0  0  0  0  0  0  0
   -4.5489   -1.6711    0.0000 C   0  0  0  0  0  0  0  0  0  0  0  0
    0.2237    0.8730    0.0000 C   0  0  0  0  0  0  0  0  0  0  0  0
   -1.2026    1.3376    0.0000 C   0  0  0  0  0  0  0  0  0  0  0  0
   -1.5134    2.8050    0.0000 C   0  0  0  0  0  0  0  0  0  0  0  0
   -2.9396    3.2696    0.0000 C   0  0  0  0  0  0  0  0  0  0  0  0
  1  2  1  0
  2  3  1  0
  3  4  1  0
  4  5  1  0
  5  6  1  0
  6  7  1  0
  7  8  1  0
  8  9  1  0
  5 10  1  0
 10 11  1  0
 11 12  1  0
 12 13  1  0
M  END
>  <linear_selectivity>  (248) 
14

>  <denticity>  (248) 
1

>  <ligand_class>  (248) 
phosphine

$$$$
P(nBu)3_130C_xylene
     RDKit          2D

 13 12  0  0  0  0  0  0  0  0999 V2000
    5.6179    0.4821    0.0000 C   0  0  0  0  0  0  0  0  0  0  0  0
    4.5024   -0.5207    0.0000 C   0  0  0  0  0  0  0  0  0  0  0  0
    3.0762   -0.0562    0.0000 C   0  0  0  0  0  0  0  0  0  0  0  0
    1.9607   -1.0590    0.0000 C   0  0  0  0  0  0  0  0  0  0  0  0
    0.5345   -0.5945    0.0000 P   0  0  0  0  0  0  0  0  0  0  0  0
   -0.5810   -1.5973    0.0000 C   0  0  0  0  0  0  0  0  0  0  0  0
   -2.0072   -1.1328    0.0000 C   0  0  0  0  0  0  0  0  0  0  0  0
   -3.1227   -2.1357    0.0000 C   0  0  0  0  0  0  0  0  0  0  0  0
   -4.5489   -1.6711    0.0000 C   0  0  0  0  0  0  0  0  0  0  0  0
    0.2237    0.8730    0.0000 C   0  0  0  0  0  0  0  0  0  0  0  0
   -1.2026    1.3376    0.0000 C   0  0  0  0  0  0  0  0  0  0  0  0
   -1.5134    2.8050    0.0000 C   0  0  0  0  0  0  0  0  0  0  0  0
   -2.9396    3.2696    0.0000 C   0  0  0  0  0  0  0  0  0  0  0  0
  1  2  1  0
  2  3  1  0
  3  4  1  0
  4  5  1  0
  5  6  1  0
  6  7  1  0
  7  8  1  0
  8  9  1  0
  5 10  1  0
 10 11  1  0
 11 12  1  0
 12 13  1  0
M  END
>  <linear_selectivity>  (249) 
18

>  <denticity>  (249) 
1

>  <ligand_class>  (249) 
phosphine

$$$$
P(2-Cl-Ph)3
     RDKit          2D

 22 24  0  0  0  0  0  0  0  0999 V2000
    4.5000   -2.5981    0.0000 Cl  0  0  0  0  0  0  0  0  0  0  0  0
    3.0000   -2.5981    0.0000 C   0  0  0  0  0  0  0  0  0  0  0  0
    2.2500   -3.8971    0.0000 C   0  0  0  0  0  0  0  0  0  0  0  0
    0.7500   -3.8971    0.0000 C   0  0  0  0  0  0  0  0  0  0  0  0
   -0.0000   -2.5981    0.0000 C   0  0  0  0  0  0  0  0  0  0  0  0
    0.7500   -1.2990    0.0000 C   0  0  0  0  0  0  0  0  0  0  0  0
    0.0000    0.0000    0.0000 P   0  0  0  0  0  0  0  0  0  0  0  0
    0.7500    1.2990    0.0000 C   0  0  0  0  0  0  0  0  0  0  0  0
    2.2500    1.2990    0.0000 C   0  0  0  0  0  0  0  0  0  0  0  0
    3.0000    2.5981    0.0000 C   0  0  0  0  0  0  0  0  0  0  0  0
    2.2500    3.8971    0.0000 C   0  0  0  0  0  0  0  0  0  0  0  0
    0.7500    3.8971    0.0000 C   0  0  0  0  0  0  0  0  0  0  0  0
    0.0000    5.1962    0.0000 Cl  0  0  0  0  0  0  0  0  0  0  0  0
    0.0000    2.5981    0.0000 C   0  0  0  0  0  0  0  0  0  0  0  0
   -1.5000    0.0000    0.0000 C   0  0  0  0  0  0  0  0  0  0  0  0
   -2.2500    1.2990    0.0000 C   0  0  0  0  0  0  0  0  0  0  0  0
   -3.7500    1.2990    0.0000 C   0  0  0  0  0  0  0  0  0  0  0  0
   -4.5000    0.0000    0.0000 C   0  0  0  0  0  0  0  0  0  0  0  0
   -3.7500   -1.2990    0.0000 C   0  0  0  0  0  0  0  0  0  0  0  0
   -4.5000   -2.5981    0.0000 Cl  0  0  0  0  0  0  0  0  0  0  0  0
   -2.2500   -1.2990    0.0000 C   0  0  0  0  0  0  0  0  0  0  0  0
    2.2500   -1.2990    0.0000 C   0  0  0  0  0  0  0  0  0  0  0  0
  1  2  1  0
  2  3  2  0
  3  4  1  0
  4  5  2  0
  5  6  1  0
  6  7  1  0
  7  8  1  0
  8  9  2  0
  9 10  1  0
 10 11  2  0
 11 12  1  0
 12 13  1  0
 12 14  2  0
  7 15  1  0
 15 16  2  0
 16 17  1  0
 17 18  2  0
 18 19  1  0
 19 20  1  0
 19 21  2  0
  6 22  2  0
 22  2  1  0
 14  8  1  0
 21 15  1  0
M  END
>  <linear_selectivity>  (250) 
35

>  <denticity>  (250) 
1

>  <ligand_class>  (250) 
phosphine

$$$$
P(2-Cl-Ph)3_70C_toluene
     RDKit          2D

 22 24  0  0  0  0  0  0  0  0999 V2000
    4.5000   -2.5981    0.0000 Cl  0  0  0  0  0  0  0  0  0  0  0  0
    3.0000   -2.5981    0.0000 C   0  0  0  0  0  0  0  0  0  0  0  0
    2.2500   -3.8971    0.0000 C   0  0  0  0  0  0  0  0  0  0  0  0
    0.7500   -3.8971    0.0000 C   0  0  0  0  0  0  0  0  0  0  0  0
   -0.0000   -2.5981    0.0000 C   0  0  0  0  0  0  0  0  0  0  0  0
    0.7500   -1.2990    0.0000 C   0  0  0  0  0  0  0  0  0  0  0  0
    0.0000    0.0000    0.0000 P   0  0  0  0  0  0  0  0  0  0  0  0
    0.7500    1.2990    0.0000 C   0  0  0  0  0  0  0  0  0  0  0  0
    2.2500    1.2990    0.0000 C   0  0  0  0  0  0  0  0  0  0  0  0
    3.0000    2.5981    0.0000 C   0  0  0  0  0  0  0  0  0  0  0  0
    2.2500    3.8971    0.0000 C   0  0  0  0  0  0  0  0  0  0  0  0
    0.7500    3.8971    0.0000 C   0  0  0  0  0  0  0  0  0  0  0  0
    0.0000    5.1962    0.0000 Cl  0  0  0  0  0  0  0  0  0  0  0  0
    0.0000    2.5981    0.0000 C   0  0  0  0  0  0  0  0  0  0  0  0
   -1.5000    0.0000    0.0000 C   0  0  0  0  0  0  0  0  0  0  0  0
   -2.2500    1.2990    0.0000 C   0  0  0  0  0  0  0  0  0  0  0  0
   -3.7500    1.2990    0.0000 C   0  0  0  0  0  0  0  0  0  0  0  0
   -4.5000    0.0000    0.0000 C   0  0  0  0  0  0  0  0  0  0  0  0
   -3.7500   -1.2990    0.0000 C   0  0  0  0  0  0  0  0  0  0  0  0
   -4.5000   -2.5981    0.0000 Cl  0  0  0  0  0  0  0  0  0  0  0  0
   -2.2500   -1.2990    0.0000 C   0  0  0  0  0  0  0  0  0  0  0  0
    2.2500   -1.2990    0.0000 C   0  0  0  0  0  0  0  0  0  0  0  0
  1  2  1  0
  2  3  2  0
  3  4  1  0
  4  5  2  0
  5  6  1  0
  6  7  1  0
  7  8  1  0
  8  9  2  0
  9 10  1  0
 10 11  2  0
 11 12  1  0
 12 13  1  0
 12 14  2  0
  7 15  1  0
 15 16  2  0
 16 17  1  0
 17 18  2  0
 18 19  1  0
 19 20  1  0
 19 21  2  0
  6 22  2  0
 22  2  1  0
 14  8  1  0
 21 15  1  0
M  END
>  <linear_selectivity>  (251) 
40

>  <denticity>  (251) 
1

>  <ligand_class>  (251) 
phosphine

$$$$
P(2-Cl-Ph)3_70C_THF
     RDKit          2D

 22 24  0  0  0  0  0  0  0  0999 V2000
    4.5000   -2.5981    0.0000 Cl  0  0  0  0  0  0  0  0  0  0  0  0
    3.0000   -2.5981    0.0000 C   0  0  0  0  0  0  0  0  0  0  0  0
    2.2500   -3.8971    0.0000 C   0  0  0  0  0  0  0  0  0  0  0  0
    0.7500   -3.8971    0.0000 C   0  0  0  0  0  0  0  0  0  0  0  0
   -0.0000   -2.5981    0.0000 C   0  0  0  0  0  0  0  0  0  0  0  0
    0.7500   -1.2990    0.0000 C   0  0  0  0  0  0  0  0  0  0  0  0
    0.0000    0.0000    0.0000 P   0  0  0  0  0  0  0  0  0  0  0  0
    0.7500    1.2990    0.0000 C   0  0  0  0  0  0  0  0  0  0  0  0
    2.2500    1.2990    0.0000 C   0  0  0  0  0  0  0  0  0  0  0  0
    3.0000    2.5981    0.0000 C   0  0  0  0  0  0  0  0  0  0  0  0
    2.2500    3.8971    0.0000 C   0  0  0  0  0  0  0  0  0  0  0  0
    0.7500    3.8971    0.0000 C   0  0  0  0  0  0  0  0  0  0  0  0
    0.0000    5.1962    0.0000 Cl  0  0  0  0  0  0  0  0  0  0  0  0
    0.0000    2.5981    0.0000 C   0  0  0  0  0  0  0  0  0  0  0  0
   -1.5000    0.0000    0.0000 C   0  0  0  0  0  0  0  0  0  0  0  0
   -2.2500    1.2990    0.0000 C   0  0  0  0  0  0  0  0  0  0  0  0
   -3.7500    1.2990    0.0000 C   0  0  0  0  0  0  0  0  0  0  0  0
   -4.5000    0.0000    0.0000 C   0  0  0  0  0  0  0  0  0  0  0  0
   -3.7500   -1.2990    0.0000 C   0  0  0  0  0  0  0  0  0  0  0  0
   -4.5000   -2.5981    0.0000 Cl  0  0  0  0  0  0  0  0  0  0  0  0
   -2.2500   -1.2990    0.0000 C   0  0  0  0  0  0  0  0  0  0  0  0
    2.2500   -1.2990    0.0000 C   0  0  0  0  0  0  0  0  0  0  0  0
  1  2  1  0
  2  3  2  0
  3  4  1  0
  4  5  2  0
  5  6  1  0
  6  7  1  0
  7  8  1  0
  8  9  2  0
  9 10  1  0
 10 11  2  0
 11 12  1  0
 12 13  1  0
 12 14  2  0
  7 15  1  0
 15 16  2  0
 16 17  1  0
 17 18  2  0
 18 19  1  0
 19 20  1  0
 19 21  2  0
  6 22  2  0
 22  2  1  0
 14  8  1  0
 21 15  1  0
M  END
>  <linear_selectivity>  (252) 
37

>  <denticity>  (252) 
1

>  <ligand_class>  (252) 
phosphine

$$$$
P(2-Cl-Ph)3_70C_dioxane
     RDKit          2D

 22 24  0  0  0  0  0  0  0  0999 V2000
    4.5000   -2.5981    0.0000 Cl  0  0  0  0  0  0  0  0  0  0  0  0
    3.0000   -2.5981    0.0000 C   0  0  0  0  0  0  0  0  0  0  0  0
    2.2500   -3.8971    0.0000 C   0  0  0  0  0  0  0  0  0  0  0  0
    0.7500   -3.8971    0.0000 C   0  0  0  0  0  0  0  0  0  0  0  0
   -0.0000   -2.5981    0.0000 C   0  0  0  0  0  0  0  0  0  0  0  0
    0.7500   -1.2990    0.0000 C   0  0  0  0  0  0  0  0  0  0  0  0
    0.0000    0.0000    0.0000 P   0  0  0  0  0  0  0  0  0  0  0  0
    0.7500    1.2990    0.0000 C   0  0  0  0  0  0  0  0  0  0  0  0
    2.2500    1.2990    0.0000 C   0  0  0  0  0  0  0  0  0  0  0  0
    3.0000    2.5981    0.0000 C   0  0  0  0  0  0  0  0  0  0  0  0
    2.2500    3.8971    0.0000 C   0  0  0  0  0  0  0  0  0  0  0  0
    0.7500    3.8971    0.0000 C   0  0  0  0  0  0  0  0  0  0  0  0
    0.0000    5.1962    0.0000 Cl  0  0  0  0  0  0  0  0  0  0  0  0
    0.0000    2.5981    0.0000 C   0  0  0  0  0  0  0  0  0  0  0  0
   -1.5000    0.0000    0.0000 C   0  0  0  0  0  0  0  0  0  0  0  0
   -2.2500    1.2990    0.0000 C   0  0  0  0  0  0  0  0  0  0  0  0
   -3.7500    1.2990    0.0000 C   0  0  0  0  0  0  0  0  0  0  0  0
   -4.5000    0.0000    0.0000 C   0  0  0  0  0  0  0  0  0  0  0  0
   -3.7500   -1.2990    0.0000 C   0  0  0  0  0  0  0  0  0  0  0  0
   -4.5000   -2.5981    0.0000 Cl  0  0  0  0  0  0  0  0  0  0  0  0
   -2.2500   -1.2990    0.0000 C   0  0  0  0  0  0  0  0  0  0  0  0
    2.2500   -1.2990    0.0000 C   0  0  0  0  0  0  0  0  0  0  0  0
  1  2  1  0
  2  3  2  0
  3  4  1  0
  4  5  2  0
  5  6  1  0
  6  7  1  0
  7  8  1  0
  8  9  2  0
  9 10  1  0
 10 11  2  0
 11 12  1  0
 12 13  1  0
 12 14  2  0
  7 15  1  0
 15 16  2  0
 16 17  1  0
 17 18  2  0
 18 19  1  0
 19 20  1  0
 19 21  2  0
  6 22  2  0
 22  2  1  0
 14  8  1  0
 21 15  1  0
M  END
>  <linear_selectivity>  (253) 
38

>  <denticity>  (253) 
1

>  <ligand_class>  (253) 
phosphine

$$$$
P(2-Cl-Ph)3_70C_xylene
     RDKit          2D

 22 24  0  0  0  0  0  0  0  0999 V2000
    4.5000   -2.5981    0.0000 Cl  0  0  0  0  0  0  0  0  0  0  0  0
    3.0000   -2.5981    0.0000 C   0  0  0  0  0  0  0  0  0  0  0  0
    2.2500   -3.8971    0.0000 C   0  0  0  0  0  0  0  0  0  0  0  0
    0.7500   -3.8971    0.0000 C   0  0  0  0  0  0  0  0  0  0  0  0
   -0.0000   -2.5981    0.0000 C   0  0  0  0  0  0  0  0  0  0  0  0
    0.7500   -1.2990    0.0000 C   0  0  0  0  0  0  0  0  0  0  0  0
    0.0000    0.0000    0.0000 P   0  0  0  0  0  0  0  0  0  0  0  0
    0.7500    1.2990    0.0000 C   0  0  0  0  0  0  0  0  0  0  0  0
    2.2500    1.2990    0.0000 C   0  0  0  0  0  0  0  0  0  0  0  0
    3.0000    2.5981    0.0000 C   0  0  0  0  0  0  0  0  0  0  0  0
    2.2500    3.8971    0.0000 C   0  0  0  0  0  0  0  0  0  0  0  0
    0.7500    3.8971    0.0000 C   0  0  0  0  0  0  0  0  0  0  0  0
    0.0000    5.1962    0.0000 Cl  0  0  0  0  0  0  0  0  0  0  0  0
    0.0000    2.5981    0.0000 C   0  0  0  0  0  0  0  0  0  0  0  0
   -1.5000    0.0000    0.0000 C   0  0  0  0  0  0  0  0  0  0  0  0
   -2.2500    1.2990    0.0000 C   0  0  0  0  0  0  0  0  0  0  0  0
   -3.7500    1.2990    0.0000 C   0  0  0  0  0  0  0  0  0  0  0  0
   -4.5000    0.0000    0.0000 C   0  0  0  0  0  0  0  0  0  0  0  0
   -3.7500   -1.2990    0.0000 C   0  0  0  0  0  0  0  0  0  0  0  0
   -4.5000   -2.5981    0.0000 Cl  0  0  0  0  0  0  0  0  0  0  0  0
   -2.2500   -1.2990    0.0000 C   0  0  0  0  0  0  0  0  0  0  0  0
    2.2500   -1.2990    0.0000 C   0  0  0  0  0  0  0  0  0  0  0  0
  1  2  1  0
  2  3  2  0
  3  4  1  0
  4  5  2  0
  5  6  1  0
  6  7  1  0
  7  8  1  0
  8  9  2  0
  9 10  1  0
 10 11  2  0
 11 12  1  0
 12 13  1  0
 12 14  2  0
  7 15  1  0
 15 16  2  0
 16 17  1  0
 17 18  2  0
 18 19  1  0
 19 20  1  0
 19 21  2  0
  6 22  2  0
 22  2  1  0
 14  8  1  0
 21 15  1  0
M  END
>  <linear_selectivity>  (254) 
40

>  <denticity>  (254) 
1

>  <ligand_class>  (254) 
phosphine

$$$$
P(2-Cl-Ph)3_80C_toluene
     RDKit          2D

 22 24  0  0  0  0  0  0  0  0999 V2000
    4.5000   -2.5981    0.0000 Cl  0  0  0  0  0  0  0  0  0  0  0  0
    3.0000   -2.5981    0.0000 C   0  0  0  0  0  0  0  0  0  0  0  0
    2.2500   -3.8971    0.0000 C   0  0  0  0  0  0  0  0  0  0  0  0
    0.7500   -3.8971    0.0000 C   0  0  0  0  0  0  0  0  0  0  0  0
   -0.0000   -2.5981    0.0000 C   0  0  0  0  0  0  0  0  0  0  0  0
    0.7500   -1.2990    0.0000 C   0  0  0  0  0  0  0  0  0  0  0  0
    0.0000    0.0000    0.0000 P   0  0  0  0  0  0  0  0  0  0  0  0
    0.7500    1.2990    0.0000 C   0  0  0  0  0  0  0  0  0  0  0  0
    2.2500    1.2990    0.0000 C   0  0  0  0  0  0  0  0  0  0  0  0
    3.0000    2.5981    0.0000 C   0  0  0  0  0  0  0  0  0  0  0  0
    2.2500    3.8971    0.0000 C   0  0  0  0  0  0  0  0  0  0  0  0
    0.7500    3.8971    0.0000 C   0  0  0  0  0  0  0  0  0  0  0  0
    0.0000    5.1962    0.0000 Cl  0  0  0  0  0  0  0  0  0  0  0  0
    0.0000    2.5981    0.0000 C   0  0  0  0  0  0  0  0  0  0  0  0
   -1.5000    0.0000    0.0000 C   0  0  0  0  0  0  0  0  0  0  0  0
   -2.2500    1.2990    0.0000 C   0  0  0  0  0  0  0  0  0  0  0  0
   -3.7500    1.2990    0.0000 C   0  0  0  0  0  0  0  0  0  0  0  0
   -4.5000    0.0000    0.0000 C   0  0  0  0  0  0  0  0  0  0  0  0
   -3.7500   -1.2990    0.0000 C   0  0  0  0  0  0  0  0  0  0  0  0
   -4.5000   -2.5981    0.0000 Cl  0  0  0  0  0  0  0  0  0  0  0  0
   -2.2500   -1.2990    0.0000 C   0  0  0  0  0  0  0  0  0  0  0  0
    2.2500   -1.2990    0.0000 C   0  0  0  0  0  0  0  0  0  0  0  0
  1  2  1  0
  2  3  2  0
  3  4  1  0
  4  5  2  0
  5  6  1  0
  6  7  1  0
  7  8  1  0
  8  9  2  0
  9 10  1  0
 10 11  2  0
 11 12  1  0
 12 13  1  0
 12 14  2  0
  7 15  1  0
 15 16  2  0
 16 17  1  0
 17 18  2  0
 18 19  1  0
 19 20  1  0
 19 21  2  0
  6 22  2  0
 22  2  1  0
 14  8  1  0
 21 15  1  0
M  END
>  <linear_selectivity>  (255) 
38

>  <denticity>  (255) 
1

>  <ligand_class>  (255) 
phosphine

$$$$
P(2-Cl-Ph)3_80C_THF
     RDKit          2D

 22 24  0  0  0  0  0  0  0  0999 V2000
    4.5000   -2.5981    0.0000 Cl  0  0  0  0  0  0  0  0  0  0  0  0
    3.0000   -2.5981    0.0000 C   0  0  0  0  0  0  0  0  0  0  0  0
    2.2500   -3.8971    0.0000 C   0  0  0  0  0  0  0  0  0  0  0  0
    0.7500   -3.8971    0.0000 C   0  0  0  0  0  0  0  0  0  0  0  0
   -0.0000   -2.5981    0.0000 C   0  0  0  0  0  0  0  0  0  0  0  0
    0.7500   -1.2990    0.0000 C   0  0  0  0  0  0  0  0  0  0  0  0
    0.0000    0.0000    0.0000 P   0  0  0  0  0  0  0  0  0  0  0  0
    0.7500    1.2990    0.0000 C   0  0  0  0  0  0  0  0  0  0  0  0
    2.2500    1.2990    0.0000 C   0  0  0  0  0  0  0  0  0  0  0  0
    3.0000    2.5981    0.0000 C   0  0  0  0  0  0  0  0  0  0  0  0
    2.2500    3.8971    0.0000 C   0  0  0  0  0  0  0  0  0  0  0  0
    0.7500    3.8971    0.0000 C   0  0  0  0  0  0  0  0  0  0  0  0
    0.0000    5.1962    0.0000 Cl  0  0  0  0  0  0  0  0  0  0  0  0
    0.0000    2.5981    0.0000 C   0  0  0  0  0  0  0  0  0  0  0  0
   -1.5000    0.0000    0.0000 C   0  0  0  0  0  0  0  0  0  0  0  0
   -2.2500    1.2990    0.0000 C   0  0  0  0  0  0  0  0  0  0  0  0
   -3.7500    1.2990    0.0000 C   0  0  0  0  0  0  0  0  0  0  0  0
   -4.5000    0.0000    0.0000 C   0  0  0  0  0  0  0  0  0  0  0  0
   -3.7500   -1.2990    0.0000 C   0  0  0  0  0  0  0  0  0  0  0  0
   -4.5000   -2.5981    0.0000 Cl  0  0  0  0  0  0  0  0  0  0  0  0
   -2.2500   -1.2990    0.0000 C   0  0  0  0  0  0  0  0  0  0  0  0
    2.2500   -1.2990    0.0000 C   0  0  0  0  0  0  0  0  0  0  0  0
  1  2  1  0
  2  3  2  0
  3  4  1  0
  4  5  2  0
  5  6  1  0
  6  7  1  0
  7  8  1  0
  8  9  2  0
  9 10  1  0
 10 11  2  0
 11 12  1  0
 12 13  1  0
 12 14  2  0
  7 15  1  0
 15 16  2  0
 16 17  1  0
 17 18  2  0
 18 19  1  0
 19 20  1  0
 19 21  2  0
  6 22  2  0
 22  2  1  0
 14  8  1  0
 21 15  1  0
M  END
>  <linear_selectivity>  (256) 
36

>  <denticity>  (256) 
1

>  <ligand_class>  (256) 
phosphine

$$$$
P(2-Cl-Ph)3_80C_hexane
     RDKit          2D

 22 24  0  0  0  0  0  0  0  0999 V2000
    4.5000   -2.5981    0.0000 Cl  0  0  0  0  0  0  0  0  0  0  0  0
    3.0000   -2.5981    0.0000 C   0  0  0  0  0  0  0  0  0  0  0  0
    2.2500   -3.8971    0.0000 C   0  0  0  0  0  0  0  0  0  0  0  0
    0.7500   -3.8971    0.0000 C   0  0  0  0  0  0  0  0  0  0  0  0
   -0.0000   -2.5981    0.0000 C   0  0  0  0  0  0  0  0  0  0  0  0
    0.7500   -1.2990    0.0000 C   0  0  0  0  0  0  0  0  0  0  0  0
    0.0000    0.0000    0.0000 P   0  0  0  0  0  0  0  0  0  0  0  0
    0.7500    1.2990    0.0000 C   0  0  0  0  0  0  0  0  0  0  0  0
    2.2500    1.2990    0.0000 C   0  0  0  0  0  0  0  0  0  0  0  0
    3.0000    2.5981    0.0000 C   0  0  0  0  0  0  0  0  0  0  0  0
    2.2500    3.8971    0.0000 C   0  0  0  0  0  0  0  0  0  0  0  0
    0.7500    3.8971    0.0000 C   0  0  0  0  0  0  0  0  0  0  0  0
    0.0000    5.1962    0.0000 Cl  0  0  0  0  0  0  0  0  0  0  0  0
    0.0000    2.5981    0.0000 C   0  0  0  0  0  0  0  0  0  0  0  0
   -1.5000    0.0000    0.0000 C   0  0  0  0  0  0  0  0  0  0  0  0
   -2.2500    1.2990    0.0000 C   0  0  0  0  0  0  0  0  0  0  0  0
   -3.7500    1.2990    0.0000 C   0  0  0  0  0  0  0  0  0  0  0  0
   -4.5000    0.0000    0.0000 C   0  0  0  0  0  0  0  0  0  0  0  0
   -3.7500   -1.2990    0.0000 C   0  0  0  0  0  0  0  0  0  0  0  0
   -4.5000   -2.5981    0.0000 Cl  0  0  0  0  0  0  0  0  0  0  0  0
   -2.2500   -1.2990    0.0000 C   0  0  0  0  0  0  0  0  0  0  0  0
    2.2500   -1.2990    0.0000 C   0  0  0  0  0  0  0  0  0  0  0  0
  1  2  1  0
  2  3  2  0
  3  4  1  0
  4  5  2  0
  5  6  1  0
  6  7  1  0
  7  8  1  0
  8  9  2  0
  9 10  1  0
 10 11  2  0
 11 12  1  0
 12 13  1  0
 12 14  2  0
  7 15  1  0
 15 16  2  0
 16 17  1  0
 17 18  2  0
 18 19  1  0
 19 20  1  0
 19 21  2  0
  6 22  2  0
 22  2  1  0
 14  8  1  0
 21 15  1  0
M  END
>  <linear_selectivity>  (257) 
40

>  <denticity>  (257) 
1

>  <ligand_class>  (257) 
phosphine

$$$$
P(2-Cl-Ph)3_80C_xylene
     RDKit          2D

 22 24  0  0  0  0  0  0  0  0999 V2000
    4.5000   -2.5981    0.0000 Cl  0  0  0  0  0  0  0  0  0  0  0  0
    3.0000   -2.5981    0.0000 C   0  0  0  0  0  0  0  0  0  0  0  0
    2.2500   -3.8971    0.0000 C   0  0  0  0  0  0  0  0  0  0  0  0
    0.7500   -3.8971    0.0000 C   0  0  0  0  0  0  0  0  0  0  0  0
   -0.0000   -2.5981    0.0000 C   0  0  0  0  0  0  0  0  0  0  0  0
    0.7500   -1.2990    0.0000 C   0  0  0  0  0  0  0  0  0  0  0  0
    0.0000    0.0000    0.0000 P   0  0  0  0  0  0  0  0  0  0  0  0
    0.7500    1.2990    0.0000 C   0  0  0  0  0  0  0  0  0  0  0  0
    2.2500    1.2990    0.0000 C   0  0  0  0  0  0  0  0  0  0  0  0
    3.0000    2.5981    0.0000 C   0  0  0  0  0  0  0  0  0  0  0  0
    2.2500    3.8971    0.0000 C   0  0  0  0  0  0  0  0  0  0  0  0
    0.7500    3.8971    0.0000 C   0  0  0  0  0  0  0  0  0  0  0  0
    0.0000    5.1962    0.0000 Cl  0  0  0  0  0  0  0  0  0  0  0  0
    0.0000    2.5981    0.0000 C   0  0  0  0  0  0  0  0  0  0  0  0
   -1.5000    0.0000    0.0000 C   0  0  0  0  0  0  0  0  0  0  0  0
   -2.2500    1.2990    0.0000 C   0  0  0  0  0  0  0  0  0  0  0  0
   -3.7500    1.2990    0.0000 C   0  0  0  0  0  0  0  0  0  0  0  0
   -4.5000    0.0000    0.0000 C   0  0  0  0  0  0  0  0  0  0  0  0
   -3.7500   -1.2990    0.0000 C   0  0  0  0  0  0  0  0  0  0  0  0
   -4.5000   -2.5981    0.0000 Cl  0  0  0  0  0  0  0  0  0  0  0  0
   -2.2500   -1.2990    0.0000 C   0  0  0  0  0  0  0  0  0  0  0  0
    2.2500   -1.2990    0.0000 C   0  0  0  0  0  0  0  0  0  0  0  0
  1  2  1  0
  2  3  2  0
  3  4  1  0
  4  5  2  0
  5  6  1  0
  6  7  1  0
  7  8  1  0
  8  9  2  0
  9 10  1  0
 10 11  2  0
 11 12  1  0
 12 13  1  0
 12 14  2  0
  7 15  1  0
 15 16  2  0
 16 17  1  0
 17 18  2  0
 18 19  1  0
 19 20  1  0
 19 21  2  0
  6 22  2  0
 22  2  1  0
 14  8  1  0
 21 15  1  0
M  END
>  <linear_selectivity>  (258) 
38

>  <denticity>  (258) 
1

>  <ligand_class>  (258) 
phosphine

$$$$
P(2-Cl-Ph)3_90C_toluene
     RDKit          2D

 22 24  0  0  0  0  0  0  0  0999 V2000
    4.5000   -2.5981    0.0000 Cl  0  0  0  0  0  0  0  0  0  0  0  0
    3.0000   -2.5981    0.0000 C   0  0  0  0  0  0  0  0  0  0  0  0
    2.2500   -3.8971    0.0000 C   0  0  0  0  0  0  0  0  0  0  0  0
    0.7500   -3.8971    0.0000 C   0  0  0  0  0  0  0  0  0  0  0  0
   -0.0000   -2.5981    0.0000 C   0  0  0  0  0  0  0  0  0  0  0  0
    0.7500   -1.2990    0.0000 C   0  0  0  0  0  0  0  0  0  0  0  0
    0.0000    0.0000    0.0000 P   0  0  0  0  0  0  0  0  0  0  0  0
    0.7500    1.2990    0.0000 C   0  0  0  0  0  0  0  0  0  0  0  0
    2.2500    1.2990    0.0000 C   0  0  0  0  0  0  0  0  0  0  0  0
    3.0000    2.5981    0.0000 C   0  0  0  0  0  0  0  0  0  0  0  0
    2.2500    3.8971    0.0000 C   0  0  0  0  0  0  0  0  0  0  0  0
    0.7500    3.8971    0.0000 C   0  0  0  0  0  0  0  0  0  0  0  0
    0.0000    5.1962    0.0000 Cl  0  0  0  0  0  0  0  0  0  0  0  0
    0.0000    2.5981    0.0000 C   0  0  0  0  0  0  0  0  0  0  0  0
   -1.5000    0.0000    0.0000 C   0  0  0  0  0  0  0  0  0  0  0  0
   -2.2500    1.2990    0.0000 C   0  0  0  0  0  0  0  0  0  0  0  0
   -3.7500    1.2990    0.0000 C   0  0  0  0  0  0  0  0  0  0  0  0
   -4.5000    0.0000    0.0000 C   0  0  0  0  0  0  0  0  0  0  0  0
   -3.7500   -1.2990    0.0000 C   0  0  0  0  0  0  0  0  0  0  0  0
   -4.5000   -2.5981    0.0000 Cl  0  0  0  0  0  0  0  0  0  0  0  0
   -2.2500   -1.2990    0.0000 C   0  0  0  0  0  0  0  0  0  0  0  0
    2.2500   -1.2990    0.0000 C   0  0  0  0  0  0  0  0  0  0  0  0
  1  2  1  0
  2  3  2  0
  3  4  1  0
  4  5  2  0
  5  6  1  0
  6  7  1  0
  7  8  1  0
  8  9  2  0
  9 10  1  0
 10 11  2  0
 11 12  1  0
 12 13  1  0
 12 14  2  0
  7 15  1  0
 15 16  2  0
 16 17  1  0
 17 18  2  0
 18 19  1  0
 19 20  1  0
 19 21  2  0
  6 22  2  0
 22  2  1  0
 14  8  1  0
 21 15  1  0
M  END
>  <linear_selectivity>  (259) 
40

>  <denticity>  (259) 
1

>  <ligand_class>  (259) 
phosphine

$$$$
P(2-Cl-Ph)3_90C_benzene
     RDKit          2D

 22 24  0  0  0  0  0  0  0  0999 V2000
    4.5000   -2.5981    0.0000 Cl  0  0  0  0  0  0  0  0  0  0  0  0
    3.0000   -2.5981    0.0000 C   0  0  0  0  0  0  0  0  0  0  0  0
    2.2500   -3.8971    0.0000 C   0  0  0  0  0  0  0  0  0  0  0  0
    0.7500   -3.8971    0.0000 C   0  0  0  0  0  0  0  0  0  0  0  0
   -0.0000   -2.5981    0.0000 C   0  0  0  0  0  0  0  0  0  0  0  0
    0.7500   -1.2990    0.0000 C   0  0  0  0  0  0  0  0  0  0  0  0
    0.0000    0.0000    0.0000 P   0  0  0  0  0  0  0  0  0  0  0  0
    0.7500    1.2990    0.0000 C   0  0  0  0  0  0  0  0  0  0  0  0
    2.2500    1.2990    0.0000 C   0  0  0  0  0  0  0  0  0  0  0  0
    3.0000    2.5981    0.0000 C   0  0  0  0  0  0  0  0  0  0  0  0
    2.2500    3.8971    0.0000 C   0  0  0  0  0  0  0  0  0  0  0  0
    0.7500    3.8971    0.0000 C   0  0  0  0  0  0  0  0  0  0  0  0
    0.0000    5.1962    0.0000 Cl  0  0  0  0  0  0  0  0  0  0  0  0
    0.0000    2.5981    0.0000 C   0  0  0  0  0  0  0  0  0  0  0  0
   -1.5000    0.0000    0.0000 C   0  0  0  0  0  0  0  0  0  0  0  0
   -2.2500    1.2990    0.0000 C   0  0  0  0  0  0  0  0  0  0  0  0
   -3.7500    1.2990    0.0000 C   0  0  0  0  0  0  0  0  0  0  0  0
   -4.5000    0.0000    0.0000 C   0  0  0  0  0  0  0  0  0  0  0  0
   -3.7500   -1.2990    0.0000 C   0  0  0  0  0  0  0  0  0  0  0  0
   -4.5000   -2.5981    0.0000 Cl  0  0  0  0  0  0  0  0  0  0  0  0
   -2.2500   -1.2990    0.0000 C   0  0  0  0  0  0  0  0  0  0  0  0
    2.2500   -1.2990    0.0000 C   0  0  0  0  0  0  0  0  0  0  0  0
  1  2  1  0
  2  3  2  0
  3  4  1  0
  4  5  2  0
  5  6  1  0
  6  7  1  0
  7  8  1  0
  8  9  2  0
  9 10  1  0
 10 11  2  0
 11 12  1  0
 12 13  1  0
 12 14  2  0
  7 15  1  0
 15 16  2  0
 16 17  1  0
 17 18  2  0
 18 19  1  0
 19 20  1  0
 19 21  2  0
  6 22  2  0
 22  2  1  0
 14  8  1  0
 21 15  1  0
M  END
>  <linear_selectivity>  (260) 
35

>  <denticity>  (260) 
1

>  <ligand_class>  (260) 
phosphine

$$$$
P(2-Cl-Ph)3_90C_xylene
     RDKit          2D

 22 24  0  0  0  0  0  0  0  0999 V2000
    4.5000   -2.5981    0.0000 Cl  0  0  0  0  0  0  0  0  0  0  0  0
    3.0000   -2.5981    0.0000 C   0  0  0  0  0  0  0  0  0  0  0  0
    2.2500   -3.8971    0.0000 C   0  0  0  0  0  0  0  0  0  0  0  0
    0.7500   -3.8971    0.0000 C   0  0  0  0  0  0  0  0  0  0  0  0
   -0.0000   -2.5981    0.0000 C   0  0  0  0  0  0  0  0  0  0  0  0
    0.7500   -1.2990    0.0000 C   0  0  0  0  0  0  0  0  0  0  0  0
    0.0000    0.0000    0.0000 P   0  0  0  0  0  0  0  0  0  0  0  0
    0.7500    1.2990    0.0000 C   0  0  0  0  0  0  0  0  0  0  0  0
    2.2500    1.2990    0.0000 C   0  0  0  0  0  0  0  0  0  0  0  0
    3.0000    2.5981    0.0000 C   0  0  0  0  0  0  0  0  0  0  0  0
    2.2500    3.8971    0.0000 C   0  0  0  0  0  0  0  0  0  0  0  0
    0.7500    3.8971    0.0000 C   0  0  0  0  0  0  0  0  0  0  0  0
    0.0000    5.1962    0.0000 Cl  0  0  0  0  0  0  0  0  0  0  0  0
    0.0000    2.5981    0.0000 C   0  0  0  0  0  0  0  0  0  0  0  0
   -1.5000    0.0000    0.0000 C   0  0  0  0  0  0  0  0  0  0  0  0
   -2.2500    1.2990    0.0000 C   0  0  0  0  0  0  0  0  0  0  0  0
   -3.7500    1.2990    0.0000 C   0  0  0  0  0  0  0  0  0  0  0  0
   -4.5000    0.0000    0.0000 C   0  0  0  0  0  0  0  0  0  0  0  0
   -3.7500   -1.2990    0.0000 C   0  0  0  0  0  0  0  0  0  0  0  0
   -4.5000   -2.5981    0.0000 Cl  0  0  0  0  0  0  0  0  0  0  0  0
   -2.2500   -1.2990    0.0000 C   0  0  0  0  0  0  0  0  0  0  0  0
    2.2500   -1.2990    0.0000 C   0  0  0  0  0  0  0  0  0  0  0  0
  1  2  1  0
  2  3  2  0
  3  4  1  0
  4  5  2  0
  5  6  1  0
  6  7  1  0
  7  8  1  0
  8  9  2  0
  9 10  1  0
 10 11  2  0
 11 12  1  0
 12 13  1  0
 12 14  2  0
  7 15  1  0
 15 16  2  0
 16 17  1  0
 17 18  2  0
 18 19  1  0
 19 20  1  0
 19 21  2  0
  6 22  2  0
 22  2  1  0
 14  8  1  0
 21 15  1  0
M  END
>  <linear_selectivity>  (261) 
37

>  <denticity>  (261) 
1

>  <ligand_class>  (261) 
phosphine

$$$$
P(2-Cl-Ph)3_100C_toluene
     RDKit          2D

 22 24  0  0  0  0  0  0  0  0999 V2000
    4.5000   -2.5981    0.0000 Cl  0  0  0  0  0  0  0  0  0  0  0  0
    3.0000   -2.5981    0.0000 C   0  0  0  0  0  0  0  0  0  0  0  0
    2.2500   -3.8971    0.0000 C   0  0  0  0  0  0  0  0  0  0  0  0
    0.7500   -3.8971    0.0000 C   0  0  0  0  0  0  0  0  0  0  0  0
   -0.0000   -2.5981    0.0000 C   0  0  0  0  0  0  0  0  0  0  0  0
    0.7500   -1.2990    0.0000 C   0  0  0  0  0  0  0  0  0  0  0  0
    0.0000    0.0000    0.0000 P   0  0  0  0  0  0  0  0  0  0  0  0
    0.7500    1.2990    0.0000 C   0  0  0  0  0  0  0  0  0  0  0  0
    2.2500    1.2990    0.0000 C   0  0  0  0  0  0  0  0  0  0  0  0
    3.0000    2.5981    0.0000 C   0  0  0  0  0  0  0  0  0  0  0  0
    2.2500    3.8971    0.0000 C   0  0  0  0  0  0  0  0  0  0  0  0
    0.7500    3.8971    0.0000 C   0  0  0  0  0  0  0  0  0  0  0  0
    0.0000    5.1962    0.0000 Cl  0  0  0  0  0  0  0  0  0  0  0  0
    0.0000    2.5981    0.0000 C   0  0  0  0  0  0  0  0  0  0  0  0
   -1.5000    0.0000    0.0000 C   0  0  0  0  0  0  0  0  0  0  0  0
   -2.2500    1.2990    0.0000 C   0  0  0  0  0  0  0  0  0  0  0  0
   -3.7500    1.2990    0.0000 C   0  0  0  0  0  0  0  0  0  0  0  0
   -4.5000    0.0000    0.0000 C   0  0  0  0  0  0  0  0  0  0  0  0
   -3.7500   -1.2990    0.0000 C   0  0  0  0  0  0  0  0  0  0  0  0
   -4.5000   -2.5981    0.0000 Cl  0  0  0  0  0  0  0  0  0  0  0  0
   -2.2500   -1.2990    0.0000 C   0  0  0  0  0  0  0  0  0  0  0  0
    2.2500   -1.2990    0.0000 C   0  0  0  0  0  0  0  0  0  0  0  0
  1  2  1  0
  2  3  2  0
  3  4  1  0
  4  5  2  0
  5  6  1  0
  6  7  1  0
  7  8  1  0
  8  9  2  0
  9 10  1  0
 10 11  2  0
 11 12  1  0
 12 13  1  0
 12 14  2  0
  7 15  1  0
 15 16  2  0
 16 17  1  0
 17 18  2  0
 18 19  1  0
 19 20  1  0
 19 21  2  0
  6 22  2  0
 22  2  1  0
 14  8  1  0
 21 15  1  0
M  END
>  <linear_selectivity>  (262) 
33

>  <denticity>  (262) 
1

>  <ligand_class>  (262) 
phosphine

$$$$
P(2-Cl-Ph)3_100C_dioxane
     RDKit          2D

 22 24  0  0  0  0  0  0  0  0999 V2000
    4.5000   -2.5981    0.0000 Cl  0  0  0  0  0  0  0  0  0  0  0  0
    3.0000   -2.5981    0.0000 C   0  0  0  0  0  0  0  0  0  0  0  0
    2.2500   -3.8971    0.0000 C   0  0  0  0  0  0  0  0  0  0  0  0
    0.7500   -3.8971    0.0000 C   0  0  0  0  0  0  0  0  0  0  0  0
   -0.0000   -2.5981    0.0000 C   0  0  0  0  0  0  0  0  0  0  0  0
    0.7500   -1.2990    0.0000 C   0  0  0  0  0  0  0  0  0  0  0  0
    0.0000    0.0000    0.0000 P   0  0  0  0  0  0  0  0  0  0  0  0
    0.7500    1.2990    0.0000 C   0  0  0  0  0  0  0  0  0  0  0  0
    2.2500    1.2990    0.0000 C   0  0  0  0  0  0  0  0  0  0  0  0
    3.0000    2.5981    0.0000 C   0  0  0  0  0  0  0  0  0  0  0  0
    2.2500    3.8971    0.0000 C   0  0  0  0  0  0  0  0  0  0  0  0
    0.7500    3.8971    0.0000 C   0  0  0  0  0  0  0  0  0  0  0  0
    0.0000    5.1962    0.0000 Cl  0  0  0  0  0  0  0  0  0  0  0  0
    0.0000    2.5981    0.0000 C   0  0  0  0  0  0  0  0  0  0  0  0
   -1.5000    0.0000    0.0000 C   0  0  0  0  0  0  0  0  0  0  0  0
   -2.2500    1.2990    0.0000 C   0  0  0  0  0  0  0  0  0  0  0  0
   -3.7500    1.2990    0.0000 C   0  0  0  0  0  0  0  0  0  0  0  0
   -4.5000    0.0000    0.0000 C   0  0  0  0  0  0  0  0  0  0  0  0
   -3.7500   -1.2990    0.0000 C   0  0  0  0  0  0  0  0  0  0  0  0
   -4.5000   -2.5981    0.0000 Cl  0  0  0  0  0  0  0  0  0  0  0  0
   -2.2500   -1.2990    0.0000 C   0  0  0  0  0  0  0  0  0  0  0  0
    2.2500   -1.2990    0.0000 C   0  0  0  0  0  0  0  0  0  0  0  0
  1  2  1  0
  2  3  2  0
  3  4  1  0
  4  5  2  0
  5  6  1  0
  6  7  1  0
  7  8  1  0
  8  9  2  0
  9 10  1  0
 10 11  2  0
 11 12  1  0
 12 13  1  0
 12 14  2  0
  7 15  1  0
 15 16  2  0
 16 17  1  0
 17 18  2  0
 18 19  1  0
 19 20  1  0
 19 21  2  0
  6 22  2  0
 22  2  1  0
 14  8  1  0
 21 15  1  0
M  END
>  <linear_selectivity>  (263) 
29

>  <denticity>  (263) 
1

>  <ligand_class>  (263) 
phosphine

$$$$
P(2-Cl-Ph)3_100C_benzene
     RDKit          2D

 22 24  0  0  0  0  0  0  0  0999 V2000
    4.5000   -2.5981    0.0000 Cl  0  0  0  0  0  0  0  0  0  0  0  0
    3.0000   -2.5981    0.0000 C   0  0  0  0  0  0  0  0  0  0  0  0
    2.2500   -3.8971    0.0000 C   0  0  0  0  0  0  0  0  0  0  0  0
    0.7500   -3.8971    0.0000 C   0  0  0  0  0  0  0  0  0  0  0  0
   -0.0000   -2.5981    0.0000 C   0  0  0  0  0  0  0  0  0  0  0  0
    0.7500   -1.2990    0.0000 C   0  0  0  0  0  0  0  0  0  0  0  0
    0.0000    0.0000    0.0000 P   0  0  0  0  0  0  0  0  0  0  0  0
    0.7500    1.2990    0.0000 C   0  0  0  0  0  0  0  0  0  0  0  0
    2.2500    1.2990    0.0000 C   0  0  0  0  0  0  0  0  0  0  0  0
    3.0000    2.5981    0.0000 C   0  0  0  0  0  0  0  0  0  0  0  0
    2.2500    3.8971    0.0000 C   0  0  0  0  0  0  0  0  0  0  0  0
    0.7500    3.8971    0.0000 C   0  0  0  0  0  0  0  0  0  0  0  0
    0.0000    5.1962    0.0000 Cl  0  0  0  0  0  0  0  0  0  0  0  0
    0.0000    2.5981    0.0000 C   0  0  0  0  0  0  0  0  0  0  0  0
   -1.5000    0.0000    0.0000 C   0  0  0  0  0  0  0  0  0  0  0  0
   -2.2500    1.2990    0.0000 C   0  0  0  0  0  0  0  0  0  0  0  0
   -3.7500    1.2990    0.0000 C   0  0  0  0  0  0  0  0  0  0  0  0
   -4.5000    0.0000    0.0000 C   0  0  0  0  0  0  0  0  0  0  0  0
   -3.7500   -1.2990    0.0000 C   0  0  0  0  0  0  0  0  0  0  0  0
   -4.5000   -2.5981    0.0000 Cl  0  0  0  0  0  0  0  0  0  0  0  0
   -2.2500   -1.2990    0.0000 C   0  0  0  0  0  0  0  0  0  0  0  0
    2.2500   -1.2990    0.0000 C   0  0  0  0  0  0  0  0  0  0  0  0
  1  2  1  0
  2  3  2  0
  3  4  1  0
  4  5  2  0
  5  6  1  0
  6  7  1  0
  7  8  1  0
  8  9  2  0
  9 10  1  0
 10 11  2  0
 11 12  1  0
 12 13  1  0
 12 14  2  0
  7 15  1  0
 15 16  2  0
 16 17  1  0
 17 18  2  0
 18 19  1  0
 19 20  1  0
 19 21  2  0
  6 22  2  0
 22  2  1  0
 14  8  1  0
 21 15  1  0
M  END
>  <linear_selectivity>  (264) 
36

>  <denticity>  (264) 
1

>  <ligand_class>  (264) 
phosphine

$$$$
P(2-Cl-Ph)3_100C_xylene
     RDKit          2D

 22 24  0  0  0  0  0  0  0  0999 V2000
    4.5000   -2.5981    0.0000 Cl  0  0  0  0  0  0  0  0  0  0  0  0
    3.0000   -2.5981    0.0000 C   0  0  0  0  0  0  0  0  0  0  0  0
    2.2500   -3.8971    0.0000 C   0  0  0  0  0  0  0  0  0  0  0  0
    0.7500   -3.8971    0.0000 C   0  0  0  0  0  0  0  0  0  0  0  0
   -0.0000   -2.5981    0.0000 C   0  0  0  0  0  0  0  0  0  0  0  0
    0.7500   -1.2990    0.0000 C   0  0  0  0  0  0  0  0  0  0  0  0
    0.0000    0.0000    0.0000 P   0  0  0  0  0  0  0  0  0  0  0  0
    0.7500    1.2990    0.0000 C   0  0  0  0  0  0  0  0  0  0  0  0
    2.2500    1.2990    0.0000 C   0  0  0  0  0  0  0  0  0  0  0  0
    3.0000    2.5981    0.0000 C   0  0  0  0  0  0  0  0  0  0  0  0
    2.2500    3.8971    0.0000 C   0  0  0  0  0  0  0  0  0  0  0  0
    0.7500    3.8971    0.0000 C   0  0  0  0  0  0  0  0  0  0  0  0
    0.0000    5.1962    0.0000 Cl  0  0  0  0  0  0  0  0  0  0  0  0
    0.0000    2.5981    0.0000 C   0  0  0  0  0  0  0  0  0  0  0  0
   -1.5000    0.0000    0.0000 C   0  0  0  0  0  0  0  0  0  0  0  0
   -2.2500    1.2990    0.0000 C   0  0  0  0  0  0  0  0  0  0  0  0
   -3.7500    1.2990    0.0000 C   0  0  0  0  0  0  0  0  0  0  0  0
   -4.5000    0.0000    0.0000 C   0  0  0  0  0  0  0  0  0  0  0  0
   -3.7500   -1.2990    0.0000 C   0  0  0  0  0  0  0  0  0  0  0  0
   -4.5000   -2.5981    0.0000 Cl  0  0  0  0  0  0  0  0  0  0  0  0
   -2.2500   -1.2990    0.0000 C   0  0  0  0  0  0  0  0  0  0  0  0
    2.2500   -1.2990    0.0000 C   0  0  0  0  0  0  0  0  0  0  0  0
  1  2  1  0
  2  3  2  0
  3  4  1  0
  4  5  2  0
  5  6  1  0
  6  7  1  0
  7  8  1  0
  8  9  2  0
  9 10  1  0
 10 11  2  0
 11 12  1  0
 12 13  1  0
 12 14  2  0
  7 15  1  0
 15 16  2  0
 16 17  1  0
 17 18  2  0
 18 19  1  0
 19 20  1  0
 19 21  2  0
  6 22  2  0
 22  2  1  0
 14  8  1  0
 21 15  1  0
M  END
>  <linear_selectivity>  (265) 
35

>  <denticity>  (265) 
1

>  <ligand_class>  (265) 
phosphine

$$$$
P(2-Cl-Ph)3_110C_toluene
     RDKit          2D

 22 24  0  0  0  0  0  0  0  0999 V2000
    4.5000   -2.5981    0.0000 Cl  0  0  0  0  0  0  0  0  0  0  0  0
    3.0000   -2.5981    0.0000 C   0  0  0  0  0  0  0  0  0  0  0  0
    2.2500   -3.8971    0.0000 C   0  0  0  0  0  0  0  0  0  0  0  0
    0.7500   -3.8971    0.0000 C   0  0  0  0  0  0  0  0  0  0  0  0
   -0.0000   -2.5981    0.0000 C   0  0  0  0  0  0  0  0  0  0  0  0
    0.7500   -1.2990    0.0000 C   0  0  0  0  0  0  0  0  0  0  0  0
    0.0000    0.0000    0.0000 P   0  0  0  0  0  0  0  0  0  0  0  0
    0.7500    1.2990    0.0000 C   0  0  0  0  0  0  0  0  0  0  0  0
    2.2500    1.2990    0.0000 C   0  0  0  0  0  0  0  0  0  0  0  0
    3.0000    2.5981    0.0000 C   0  0  0  0  0  0  0  0  0  0  0  0
    2.2500    3.8971    0.0000 C   0  0  0  0  0  0  0  0  0  0  0  0
    0.7500    3.8971    0.0000 C   0  0  0  0  0  0  0  0  0  0  0  0
    0.0000    5.1962    0.0000 Cl  0  0  0  0  0  0  0  0  0  0  0  0
    0.0000    2.5981    0.0000 C   0  0  0  0  0  0  0  0  0  0  0  0
   -1.5000    0.0000    0.0000 C   0  0  0  0  0  0  0  0  0  0  0  0
   -2.2500    1.2990    0.0000 C   0  0  0  0  0  0  0  0  0  0  0  0
   -3.7500    1.2990    0.0000 C   0  0  0  0  0  0  0  0  0  0  0  0
   -4.5000    0.0000    0.0000 C   0  0  0  0  0  0  0  0  0  0  0  0
   -3.7500   -1.2990    0.0000 C   0  0  0  0  0  0  0  0  0  0  0  0
   -4.5000   -2.5981    0.0000 Cl  0  0  0  0  0  0  0  0  0  0  0  0
   -2.2500   -1.2990    0.0000 C   0  0  0  0  0  0  0  0  0  0  0  0
    2.2500   -1.2990    0.0000 C   0  0  0  0  0  0  0  0  0  0  0  0
  1  2  1  0
  2  3  2  0
  3  4  1  0
  4  5  2  0
  5  6  1  0
  6  7  1  0
  7  8  1  0
  8  9  2  0
  9 10  1  0
 10 11  2  0
 11 12  1  0
 12 13  1  0
 12 14  2  0
  7 15  1  0
 15 16  2  0
 16 17  1  0
 17 18  2  0
 18 19  1  0
 19 20  1  0
 19 21  2  0
  6 22  2  0
 22  2  1  0
 14  8  1  0
 21 15  1  0
M  END
>  <linear_selectivity>  (266) 
33

>  <denticity>  (266) 
1

>  <ligand_class>  (266) 
phosphine

$$$$
P(2-Cl-Ph)3_110C_THF
     RDKit          2D

 22 24  0  0  0  0  0  0  0  0999 V2000
    4.5000   -2.5981    0.0000 Cl  0  0  0  0  0  0  0  0  0  0  0  0
    3.0000   -2.5981    0.0000 C   0  0  0  0  0  0  0  0  0  0  0  0
    2.2500   -3.8971    0.0000 C   0  0  0  0  0  0  0  0  0  0  0  0
    0.7500   -3.8971    0.0000 C   0  0  0  0  0  0  0  0  0  0  0  0
   -0.0000   -2.5981    0.0000 C   0  0  0  0  0  0  0  0  0  0  0  0
    0.7500   -1.2990    0.0000 C   0  0  0  0  0  0  0  0  0  0  0  0
    0.0000    0.0000    0.0000 P   0  0  0  0  0  0  0  0  0  0  0  0
    0.7500    1.2990    0.0000 C   0  0  0  0  0  0  0  0  0  0  0  0
    2.2500    1.2990    0.0000 C   0  0  0  0  0  0  0  0  0  0  0  0
    3.0000    2.5981    0.0000 C   0  0  0  0  0  0  0  0  0  0  0  0
    2.2500    3.8971    0.0000 C   0  0  0  0  0  0  0  0  0  0  0  0
    0.7500    3.8971    0.0000 C   0  0  0  0  0  0  0  0  0  0  0  0
    0.0000    5.1962    0.0000 Cl  0  0  0  0  0  0  0  0  0  0  0  0
    0.0000    2.5981    0.0000 C   0  0  0  0  0  0  0  0  0  0  0  0
   -1.5000    0.0000    0.0000 C   0  0  0  0  0  0  0  0  0  0  0  0
   -2.2500    1.2990    0.0000 C   0  0  0  0  0  0  0  0  0  0  0  0
   -3.7500    1.2990    0.0000 C   0  0  0  0  0  0  0  0  0  0  0  0
   -4.5000    0.0000    0.0000 C   0  0  0  0  0  0  0  0  0  0  0  0
   -3.7500   -1.2990    0.0000 C   0  0  0  0  0  0  0  0  0  0  0  0
   -4.5000   -2.5981    0.0000 Cl  0  0  0  0  0  0  0  0  0  0  0  0
   -2.2500   -1.2990    0.0000 C   0  0  0  0  0  0  0  0  0  0  0  0
    2.2500   -1.2990    0.0000 C   0  0  0  0  0  0  0  0  0  0  0  0
  1  2  1  0
  2  3  2  0
  3  4  1  0
  4  5  2  0
  5  6  1  0
  6  7  1  0
  7  8  1  0
  8  9  2  0
  9 10  1  0
 10 11  2  0
 11 12  1  0
 12 13  1  0
 12 14  2  0
  7 15  1  0
 15 16  2  0
 16 17  1  0
 17 18  2  0
 18 19  1  0
 19 20  1  0
 19 21  2  0
  6 22  2  0
 22  2  1  0
 14  8  1  0
 21 15  1  0
M  END
>  <linear_selectivity>  (267) 
29

>  <denticity>  (267) 
1

>  <ligand_class>  (267) 
phosphine

$$$$
P(2-Cl-Ph)3_110C_dioxane
     RDKit          2D

 22 24  0  0  0  0  0  0  0  0999 V2000
    4.5000   -2.5981    0.0000 Cl  0  0  0  0  0  0  0  0  0  0  0  0
    3.0000   -2.5981    0.0000 C   0  0  0  0  0  0  0  0  0  0  0  0
    2.2500   -3.8971    0.0000 C   0  0  0  0  0  0  0  0  0  0  0  0
    0.7500   -3.8971    0.0000 C   0  0  0  0  0  0  0  0  0  0  0  0
   -0.0000   -2.5981    0.0000 C   0  0  0  0  0  0  0  0  0  0  0  0
    0.7500   -1.2990    0.0000 C   0  0  0  0  0  0  0  0  0  0  0  0
    0.0000    0.0000    0.0000 P   0  0  0  0  0  0  0  0  0  0  0  0
    0.7500    1.2990    0.0000 C   0  0  0  0  0  0  0  0  0  0  0  0
    2.2500    1.2990    0.0000 C   0  0  0  0  0  0  0  0  0  0  0  0
    3.0000    2.5981    0.0000 C   0  0  0  0  0  0  0  0  0  0  0  0
    2.2500    3.8971    0.0000 C   0  0  0  0  0  0  0  0  0  0  0  0
    0.7500    3.8971    0.0000 C   0  0  0  0  0  0  0  0  0  0  0  0
    0.0000    5.1962    0.0000 Cl  0  0  0  0  0  0  0  0  0  0  0  0
    0.0000    2.5981    0.0000 C   0  0  0  0  0  0  0  0  0  0  0  0
   -1.5000    0.0000    0.0000 C   0  0  0  0  0  0  0  0  0  0  0  0
   -2.2500    1.2990    0.0000 C   0  0  0  0  0  0  0  0  0  0  0  0
   -3.7500    1.2990    0.0000 C   0  0  0  0  0  0  0  0  0  0  0  0
   -4.5000    0.0000    0.0000 C   0  0  0  0  0  0  0  0  0  0  0  0
   -3.7500   -1.2990    0.0000 C   0  0  0  0  0  0  0  0  0  0  0  0
   -4.5000   -2.5981    0.0000 Cl  0  0  0  0  0  0  0  0  0  0  0  0
   -2.2500   -1.2990    0.0000 C   0  0  0  0  0  0  0  0  0  0  0  0
    2.2500   -1.2990    0.0000 C   0  0  0  0  0  0  0  0  0  0  0  0
  1  2  1  0
  2  3  2  0
  3  4  1  0
  4  5  2  0
  5  6  1  0
  6  7  1  0
  7  8  1  0
  8  9  2  0
  9 10  1  0
 10 11  2  0
 11 12  1  0
 12 13  1  0
 12 14  2  0
  7 15  1  0
 15 16  2  0
 16 17  1  0
 17 18  2  0
 18 19  1  0
 19 20  1  0
 19 21  2  0
  6 22  2  0
 22  2  1  0
 14  8  1  0
 21 15  1  0
M  END
>  <linear_selectivity>  (268) 
29

>  <denticity>  (268) 
1

>  <ligand_class>  (268) 
phosphine

$$$$
P(2-Cl-Ph)3_110C_hexane
     RDKit          2D

 22 24  0  0  0  0  0  0  0  0999 V2000
    4.5000   -2.5981    0.0000 Cl  0  0  0  0  0  0  0  0  0  0  0  0
    3.0000   -2.5981    0.0000 C   0  0  0  0  0  0  0  0  0  0  0  0
    2.2500   -3.8971    0.0000 C   0  0  0  0  0  0  0  0  0  0  0  0
    0.7500   -3.8971    0.0000 C   0  0  0  0  0  0  0  0  0  0  0  0
   -0.0000   -2.5981    0.0000 C   0  0  0  0  0  0  0  0  0  0  0  0
    0.7500   -1.2990    0.0000 C   0  0  0  0  0  0  0  0  0  0  0  0
    0.0000    0.0000    0.0000 P   0  0  0  0  0  0  0  0  0  0  0  0
    0.7500    1.2990    0.0000 C   0  0  0  0  0  0  0  0  0  0  0  0
    2.2500    1.2990    0.0000 C   0  0  0  0  0  0  0  0  0  0  0  0
    3.0000    2.5981    0.0000 C   0  0  0  0  0  0  0  0  0  0  0  0
    2.2500    3.8971    0.0000 C   0  0  0  0  0  0  0  0  0  0  0  0
    0.7500    3.8971    0.0000 C   0  0  0  0  0  0  0  0  0  0  0  0
    0.0000    5.1962    0.0000 Cl  0  0  0  0  0  0  0  0  0  0  0  0
    0.0000    2.5981    0.0000 C   0  0  0  0  0  0  0  0  0  0  0  0
   -1.5000    0.0000    0.0000 C   0  0  0  0  0  0  0  0  0  0  0  0
   -2.2500    1.2990    0.0000 C   0  0  0  0  0  0  0  0  0  0  0  0
   -3.7500    1.2990    0.0000 C   0  0  0  0  0  0  0  0  0  0  0  0
   -4.5000    0.0000    0.0000 C   0  0  0  0  0  0  0  0  0  0  0  0
   -3.7500   -1.2990    0.0000 C   0  0  0  0  0  0  0  0  0  0  0  0
   -4.5000   -2.5981    0.0000 Cl  0  0  0  0  0  0  0  0  0  0  0  0
   -2.2500   -1.2990    0.0000 C   0  0  0  0  0  0  0  0  0  0  0  0
    2.2500   -1.2990    0.0000 C   0  0  0  0  0  0  0  0  0  0  0  0
  1  2  1  0
  2  3  2  0
  3  4  1  0
  4  5  2  0
  5  6  1  0
  6  7  1  0
  7  8  1  0
  8  9  2  0
  9 10  1  0
 10 11  2  0
 11 12  1  0
 12 13  1  0
 12 14  2  0
  7 15  1  0
 15 16  2  0
 16 17  1  0
 17 18  2  0
 18 19  1  0
 19 20  1  0
 19 21  2  0
  6 22  2  0
 22  2  1  0
 14  8  1  0
 21 15  1  0
M  END
>  <linear_selectivity>  (269) 
34

>  <denticity>  (269) 
1

>  <ligand_class>  (269) 
phosphine

$$$$
P(2-Cl-Ph)3_110C_benzene
     RDKit          2D

 22 24  0  0  0  0  0  0  0  0999 V2000
    4.5000   -2.5981    0.0000 Cl  0  0  0  0  0  0  0  0  0  0  0  0
    3.0000   -2.5981    0.0000 C   0  0  0  0  0  0  0  0  0  0  0  0
    2.2500   -3.8971    0.0000 C   0  0  0  0  0  0  0  0  0  0  0  0
    0.7500   -3.8971    0.0000 C   0  0  0  0  0  0  0  0  0  0  0  0
   -0.0000   -2.5981    0.0000 C   0  0  0  0  0  0  0  0  0  0  0  0
    0.7500   -1.2990    0.0000 C   0  0  0  0  0  0  0  0  0  0  0  0
    0.0000    0.0000    0.0000 P   0  0  0  0  0  0  0  0  0  0  0  0
    0.7500    1.2990    0.0000 C   0  0  0  0  0  0  0  0  0  0  0  0
    2.2500    1.2990    0.0000 C   0  0  0  0  0  0  0  0  0  0  0  0
    3.0000    2.5981    0.0000 C   0  0  0  0  0  0  0  0  0  0  0  0
    2.2500    3.8971    0.0000 C   0  0  0  0  0  0  0  0  0  0  0  0
    0.7500    3.8971    0.0000 C   0  0  0  0  0  0  0  0  0  0  0  0
    0.0000    5.1962    0.0000 Cl  0  0  0  0  0  0  0  0  0  0  0  0
    0.0000    2.5981    0.0000 C   0  0  0  0  0  0  0  0  0  0  0  0
   -1.5000    0.0000    0.0000 C   0  0  0  0  0  0  0  0  0  0  0  0
   -2.2500    1.2990    0.0000 C   0  0  0  0  0  0  0  0  0  0  0  0
   -3.7500    1.2990    0.0000 C   0  0  0  0  0  0  0  0  0  0  0  0
   -4.5000    0.0000    0.0000 C   0  0  0  0  0  0  0  0  0  0  0  0
   -3.7500   -1.2990    0.0000 C   0  0  0  0  0  0  0  0  0  0  0  0
   -4.5000   -2.5981    0.0000 Cl  0  0  0  0  0  0  0  0  0  0  0  0
   -2.2500   -1.2990    0.0000 C   0  0  0  0  0  0  0  0  0  0  0  0
    2.2500   -1.2990    0.0000 C   0  0  0  0  0  0  0  0  0  0  0  0
  1  2  1  0
  2  3  2  0
  3  4  1  0
  4  5  2  0
  5  6  1  0
  6  7  1  0
  7  8  1  0
  8  9  2  0
  9 10  1  0
 10 11  2  0
 11 12  1  0
 12 13  1  0
 12 14  2  0
  7 15  1  0
 15 16  2  0
 16 17  1  0
 17 18  2  0
 18 19  1  0
 19 20  1  0
 19 21  2  0
  6 22  2  0
 22  2  1  0
 14  8  1  0
 21 15  1  0
M  END
>  <linear_selectivity>  (270) 
36

>  <denticity>  (270) 
1

>  <ligand_class>  (270) 
phosphine

$$$$
P(2-Cl-Ph)3_120C_toluene
     RDKit          2D

 22 24  0  0  0  0  0  0  0  0999 V2000
    4.5000   -2.5981    0.0000 Cl  0  0  0  0  0  0  0  0  0  0  0  0
    3.0000   -2.5981    0.0000 C   0  0  0  0  0  0  0  0  0  0  0  0
    2.2500   -3.8971    0.0000 C   0  0  0  0  0  0  0  0  0  0  0  0
    0.7500   -3.8971    0.0000 C   0  0  0  0  0  0  0  0  0  0  0  0
   -0.0000   -2.5981    0.0000 C   0  0  0  0  0  0  0  0  0  0  0  0
    0.7500   -1.2990    0.0000 C   0  0  0  0  0  0  0  0  0  0  0  0
    0.0000    0.0000    0.0000 P   0  0  0  0  0  0  0  0  0  0  0  0
    0.7500    1.2990    0.0000 C   0  0  0  0  0  0  0  0  0  0  0  0
    2.2500    1.2990    0.0000 C   0  0  0  0  0  0  0  0  0  0  0  0
    3.0000    2.5981    0.0000 C   0  0  0  0  0  0  0  0  0  0  0  0
    2.2500    3.8971    0.0000 C   0  0  0  0  0  0  0  0  0  0  0  0
    0.7500    3.8971    0.0000 C   0  0  0  0  0  0  0  0  0  0  0  0
    0.0000    5.1962    0.0000 Cl  0  0  0  0  0  0  0  0  0  0  0  0
    0.0000    2.5981    0.0000 C   0  0  0  0  0  0  0  0  0  0  0  0
   -1.5000    0.0000    0.0000 C   0  0  0  0  0  0  0  0  0  0  0  0
   -2.2500    1.2990    0.0000 C   0  0  0  0  0  0  0  0  0  0  0  0
   -3.7500    1.2990    0.0000 C   0  0  0  0  0  0  0  0  0  0  0  0
   -4.5000    0.0000    0.0000 C   0  0  0  0  0  0  0  0  0  0  0  0
   -3.7500   -1.2990    0.0000 C   0  0  0  0  0  0  0  0  0  0  0  0
   -4.5000   -2.5981    0.0000 Cl  0  0  0  0  0  0  0  0  0  0  0  0
   -2.2500   -1.2990    0.0000 C   0  0  0  0  0  0  0  0  0  0  0  0
    2.2500   -1.2990    0.0000 C   0  0  0  0  0  0  0  0  0  0  0  0
  1  2  1  0
  2  3  2  0
  3  4  1  0
  4  5  2  0
  5  6  1  0
  6  7  1  0
  7  8  1  0
  8  9  2  0
  9 10  1  0
 10 11  2  0
 11 12  1  0
 12 13  1  0
 12 14  2  0
  7 15  1  0
 15 16  2  0
 16 17  1  0
 17 18  2  0
 18 19  1  0
 19 20  1  0
 19 21  2  0
  6 22  2  0
 22  2  1  0
 14  8  1  0
 21 15  1  0
M  END
>  <linear_selectivity>  (271) 
30

>  <denticity>  (271) 
1

>  <ligand_class>  (271) 
phosphine

$$$$
P(2-Cl-Ph)3_120C_THF
     RDKit          2D

 22 24  0  0  0  0  0  0  0  0999 V2000
    4.5000   -2.5981    0.0000 Cl  0  0  0  0  0  0  0  0  0  0  0  0
    3.0000   -2.5981    0.0000 C   0  0  0  0  0  0  0  0  0  0  0  0
    2.2500   -3.8971    0.0000 C   0  0  0  0  0  0  0  0  0  0  0  0
    0.7500   -3.8971    0.0000 C   0  0  0  0  0  0  0  0  0  0  0  0
   -0.0000   -2.5981    0.0000 C   0  0  0  0  0  0  0  0  0  0  0  0
    0.7500   -1.2990    0.0000 C   0  0  0  0  0  0  0  0  0  0  0  0
    0.0000    0.0000    0.0000 P   0  0  0  0  0  0  0  0  0  0  0  0
    0.7500    1.2990    0.0000 C   0  0  0  0  0  0  0  0  0  0  0  0
    2.2500    1.2990    0.0000 C   0  0  0  0  0  0  0  0  0  0  0  0
    3.0000    2.5981    0.0000 C   0  0  0  0  0  0  0  0  0  0  0  0
    2.2500    3.8971    0.0000 C   0  0  0  0  0  0  0  0  0  0  0  0
    0.7500    3.8971    0.0000 C   0  0  0  0  0  0  0  0  0  0  0  0
    0.0000    5.1962    0.0000 Cl  0  0  0  0  0  0  0  0  0  0  0  0
    0.0000    2.5981    0.0000 C   0  0  0  0  0  0  0  0  0  0  0  0
   -1.5000    0.0000    0.0000 C   0  0  0  0  0  0  0  0  0  0  0  0
   -2.2500    1.2990    0.0000 C   0  0  0  0  0  0  0  0  0  0  0  0
   -3.7500    1.2990    0.0000 C   0  0  0  0  0  0  0  0  0  0  0  0
   -4.5000    0.0000    0.0000 C   0  0  0  0  0  0  0  0  0  0  0  0
   -3.7500   -1.2990    0.0000 C   0  0  0  0  0  0  0  0  0  0  0  0
   -4.5000   -2.5981    0.0000 Cl  0  0  0  0  0  0  0  0  0  0  0  0
   -2.2500   -1.2990    0.0000 C   0  0  0  0  0  0  0  0  0  0  0  0
    2.2500   -1.2990    0.0000 C   0  0  0  0  0  0  0  0  0  0  0  0
  1  2  1  0
  2  3  2  0
  3  4  1  0
  4  5  2  0
  5  6  1  0
  6  7  1  0
  7  8  1  0
  8  9  2  0
  9 10  1  0
 10 11  2  0
 11 12  1  0
 12 13  1  0
 12 14  2  0
  7 15  1  0
 15 16  2  0
 16 17  1  0
 17 18  2  0
 18 19  1  0
 19 20  1  0
 19 21  2  0
  6 22  2  0
 22  2  1  0
 14  8  1  0
 21 15  1  0
M  END
>  <linear_selectivity>  (272) 
30

>  <denticity>  (272) 
1

>  <ligand_class>  (272) 
phosphine

$$$$
P(2-Cl-Ph)3_120C_dioxane
     RDKit          2D

 22 24  0  0  0  0  0  0  0  0999 V2000
    4.5000   -2.5981    0.0000 Cl  0  0  0  0  0  0  0  0  0  0  0  0
    3.0000   -2.5981    0.0000 C   0  0  0  0  0  0  0  0  0  0  0  0
    2.2500   -3.8971    0.0000 C   0  0  0  0  0  0  0  0  0  0  0  0
    0.7500   -3.8971    0.0000 C   0  0  0  0  0  0  0  0  0  0  0  0
   -0.0000   -2.5981    0.0000 C   0  0  0  0  0  0  0  0  0  0  0  0
    0.7500   -1.2990    0.0000 C   0  0  0  0  0  0  0  0  0  0  0  0
    0.0000    0.0000    0.0000 P   0  0  0  0  0  0  0  0  0  0  0  0
    0.7500    1.2990    0.0000 C   0  0  0  0  0  0  0  0  0  0  0  0
    2.2500    1.2990    0.0000 C   0  0  0  0  0  0  0  0  0  0  0  0
    3.0000    2.5981    0.0000 C   0  0  0  0  0  0  0  0  0  0  0  0
    2.2500    3.8971    0.0000 C   0  0  0  0  0  0  0  0  0  0  0  0
    0.7500    3.8971    0.0000 C   0  0  0  0  0  0  0  0  0  0  0  0
    0.0000    5.1962    0.0000 Cl  0  0  0  0  0  0  0  0  0  0  0  0
    0.0000    2.5981    0.0000 C   0  0  0  0  0  0  0  0  0  0  0  0
   -1.5000    0.0000    0.0000 C   0  0  0  0  0  0  0  0  0  0  0  0
   -2.2500    1.2990    0.0000 C   0  0  0  0  0  0  0  0  0  0  0  0
   -3.7500    1.2990    0.0000 C   0  0  0  0  0  0  0  0  0  0  0  0
   -4.5000    0.0000    0.0000 C   0  0  0  0  0  0  0  0  0  0  0  0
   -3.7500   -1.2990    0.0000 C   0  0  0  0  0  0  0  0  0  0  0  0
   -4.5000   -2.5981    0.0000 Cl  0  0  0  0  0  0  0  0  0  0  0  0
   -2.2500   -1.2990    0.0000 C   0  0  0  0  0  0  0  0  0  0  0  0
    2.2500   -1.2990    0.0000 C   0  0  0  0  0  0  0  0  0  0  0  0
  1  2  1  0
  2  3  2  0
  3  4  1  0
  4  5  2  0
  5  6  1  0
  6  7  1  0
  7  8  1  0
  8  9  2  0
  9 10  1  0
 10 11  2  0
 11 12  1  0
 12 13  1  0
 12 14  2  0
  7 15  1  0
 15 16  2  0
 16 17  1  0
 17 18  2  0
 18 19  1  0
 19 20  1  0
 19 21  2  0
  6 22  2  0
 22  2  1  0
 14  8  1  0
 21 15  1  0
M  END
>  <linear_selectivity>  (273) 
32

>  <denticity>  (273) 
1

>  <ligand_class>  (273) 
phosphine

$$$$
P(2-Cl-Ph)3_120C_hexane
     RDKit          2D

 22 24  0  0  0  0  0  0  0  0999 V2000
    4.5000   -2.5981    0.0000 Cl  0  0  0  0  0  0  0  0  0  0  0  0
    3.0000   -2.5981    0.0000 C   0  0  0  0  0  0  0  0  0  0  0  0
    2.2500   -3.8971    0.0000 C   0  0  0  0  0  0  0  0  0  0  0  0
    0.7500   -3.8971    0.0000 C   0  0  0  0  0  0  0  0  0  0  0  0
   -0.0000   -2.5981    0.0000 C   0  0  0  0  0  0  0  0  0  0  0  0
    0.7500   -1.2990    0.0000 C   0  0  0  0  0  0  0  0  0  0  0  0
    0.0000    0.0000    0.0000 P   0  0  0  0  0  0  0  0  0  0  0  0
    0.7500    1.2990    0.0000 C   0  0  0  0  0  0  0  0  0  0  0  0
    2.2500    1.2990    0.0000 C   0  0  0  0  0  0  0  0  0  0  0  0
    3.0000    2.5981    0.0000 C   0  0  0  0  0  0  0  0  0  0  0  0
    2.2500    3.8971    0.0000 C   0  0  0  0  0  0  0  0  0  0  0  0
    0.7500    3.8971    0.0000 C   0  0  0  0  0  0  0  0  0  0  0  0
    0.0000    5.1962    0.0000 Cl  0  0  0  0  0  0  0  0  0  0  0  0
    0.0000    2.5981    0.0000 C   0  0  0  0  0  0  0  0  0  0  0  0
   -1.5000    0.0000    0.0000 C   0  0  0  0  0  0  0  0  0  0  0  0
   -2.2500    1.2990    0.0000 C   0  0  0  0  0  0  0  0  0  0  0  0
   -3.7500    1.2990    0.0000 C   0  0  0  0  0  0  0  0  0  0  0  0
   -4.5000    0.0000    0.0000 C   0  0  0  0  0  0  0  0  0  0  0  0
   -3.7500   -1.2990    0.0000 C   0  0  0  0  0  0  0  0  0  0  0  0
   -4.5000   -2.5981    0.0000 Cl  0  0  0  0  0  0  0  0  0  0  0  0
   -2.2500   -1.2990    0.0000 C   0  0  0  0  0  0  0  0  0  0  0  0
    2.2500   -1.2990    0.0000 C   0  0  0  0  0  0  0  0  0  0  0  0
  1  2  1  0
  2  3  2  0
  3  4  1  0
  4  5  2  0
  5  6  1  0
  6  7  1  0
  7  8  1  0
  8  9  2  0
  9 10  1  0
 10 11  2  0
 11 12  1  0
 12 13  1  0
 12 14  2  0
  7 15  1  0
 15 16  2  0
 16 17  1  0
 17 18  2  0
 18 19  1  0
 19 20  1  0
 19 21  2  0
  6 22  2  0
 22  2  1  0
 14  8  1  0
 21 15  1  0
M  END
>  <linear_selectivity>  (274) 
34

>  <denticity>  (274) 
1

>  <ligand_class>  (274) 
phosphine

$$$$
P(2-Cl-Ph)3_120C_benzene
     RDKit          2D

 22 24  0  0  0  0  0  0  0  0999 V2000
    4.5000   -2.5981    0.0000 Cl  0  0  0  0  0  0  0  0  0  0  0  0
    3.0000   -2.5981    0.0000 C   0  0  0  0  0  0  0  0  0  0  0  0
    2.2500   -3.8971    0.0000 C   0  0  0  0  0  0  0  0  0  0  0  0
    0.7500   -3.8971    0.0000 C   0  0  0  0  0  0  0  0  0  0  0  0
   -0.0000   -2.5981    0.0000 C   0  0  0  0  0  0  0  0  0  0  0  0
    0.7500   -1.2990    0.0000 C   0  0  0  0  0  0  0  0  0  0  0  0
    0.0000    0.0000    0.0000 P   0  0  0  0  0  0  0  0  0  0  0  0
    0.7500    1.2990    0.0000 C   0  0  0  0  0  0  0  0  0  0  0  0
    2.2500    1.2990    0.0000 C   0  0  0  0  0  0  0  0  0  0  0  0
    3.0000    2.5981    0.0000 C   0  0  0  0  0  0  0  0  0  0  0  0
    2.2500    3.8971    0.0000 C   0  0  0  0  0  0  0  0  0  0  0  0
    0.7500    3.8971    0.0000 C   0  0  0  0  0  0  0  0  0  0  0  0
    0.0000    5.1962    0.0000 Cl  0  0  0  0  0  0  0  0  0  0  0  0
    0.0000    2.5981    0.0000 C   0  0  0  0  0  0  0  0  0  0  0  0
   -1.5000    0.0000    0.0000 C   0  0  0  0  0  0  0  0  0  0  0  0
   -2.2500    1.2990    0.0000 C   0  0  0  0  0  0  0  0  0  0  0  0
   -3.7500    1.2990    0.0000 C   0  0  0  0  0  0  0  0  0  0  0  0
   -4.5000    0.0000    0.0000 C   0  0  0  0  0  0  0  0  0  0  0  0
   -3.7500   -1.2990    0.0000 C   0  0  0  0  0  0  0  0  0  0  0  0
   -4.5000   -2.5981    0.0000 Cl  0  0  0  0  0  0  0  0  0  0  0  0
   -2.2500   -1.2990    0.0000 C   0  0  0  0  0  0  0  0  0  0  0  0
    2.2500   -1.2990    0.0000 C   0  0  0  0  0  0  0  0  0  0  0  0
  1  2  1  0
  2  3  2  0
  3  4  1  0
  4  5  2  0
  5  6  1  0
  6  7  1  0
  7  8  1  0
  8  9  2  0
  9 10  1  0
 10 11  2  0
 11 12  1  0
 12 13  1  0
 12 14  2  0
  7 15  1  0
 15 16  2  0
 16 17  1  0
 17 18  2  0
 18 19  1  0
 19 20  1  0
 19 21  2  0
  6 22  2  0
 22  2  1  0
 14  8  1  0
 21 15  1  0
M  END
>  <linear_selectivity>  (275) 
34

>  <denticity>  (275) 
1

>  <ligand_class>  (275) 
phosphine

$$$$
P(2-Cl-Ph)3_130C_THF
     RDKit          2D

 22 24  0  0  0  0  0  0  0  0999 V2000
    4.5000   -2.5981    0.0000 Cl  0  0  0  0  0  0  0  0  0  0  0  0
    3.0000   -2.5981    0.0000 C   0  0  0  0  0  0  0  0  0  0  0  0
    2.2500   -3.8971    0.0000 C   0  0  0  0  0  0  0  0  0  0  0  0
    0.7500   -3.8971    0.0000 C   0  0  0  0  0  0  0  0  0  0  0  0
   -0.0000   -2.5981    0.0000 C   0  0  0  0  0  0  0  0  0  0  0  0
    0.7500   -1.2990    0.0000 C   0  0  0  0  0  0  0  0  0  0  0  0
    0.0000    0.0000    0.0000 P   0  0  0  0  0  0  0  0  0  0  0  0
    0.7500    1.2990    0.0000 C   0  0  0  0  0  0  0  0  0  0  0  0
    2.2500    1.2990    0.0000 C   0  0  0  0  0  0  0  0  0  0  0  0
    3.0000    2.5981    0.0000 C   0  0  0  0  0  0  0  0  0  0  0  0
    2.2500    3.8971    0.0000 C   0  0  0  0  0  0  0  0  0  0  0  0
    0.7500    3.8971    0.0000 C   0  0  0  0  0  0  0  0  0  0  0  0
    0.0000    5.1962    0.0000 Cl  0  0  0  0  0  0  0  0  0  0  0  0
    0.0000    2.5981    0.0000 C   0  0  0  0  0  0  0  0  0  0  0  0
   -1.5000    0.0000    0.0000 C   0  0  0  0  0  0  0  0  0  0  0  0
   -2.2500    1.2990    0.0000 C   0  0  0  0  0  0  0  0  0  0  0  0
   -3.7500    1.2990    0.0000 C   0  0  0  0  0  0  0  0  0  0  0  0
   -4.5000    0.0000    0.0000 C   0  0  0  0  0  0  0  0  0  0  0  0
   -3.7500   -1.2990    0.0000 C   0  0  0  0  0  0  0  0  0  0  0  0
   -4.5000   -2.5981    0.0000 Cl  0  0  0  0  0  0  0  0  0  0  0  0
   -2.2500   -1.2990    0.0000 C   0  0  0  0  0  0  0  0  0  0  0  0
    2.2500   -1.2990    0.0000 C   0  0  0  0  0  0  0  0  0  0  0  0
  1  2  1  0
  2  3  2  0
  3  4  1  0
  4  5  2  0
  5  6  1  0
  6  7  1  0
  7  8  1  0
  8  9  2  0
  9 10  1  0
 10 11  2  0
 11 12  1  0
 12 13  1  0
 12 14  2  0
  7 15  1  0
 15 16  2  0
 16 17  1  0
 17 18  2  0
 18 19  1  0
 19 20  1  0
 19 21  2  0
  6 22  2  0
 22  2  1  0
 14  8  1  0
 21 15  1  0
M  END
>  <linear_selectivity>  (276) 
27

>  <denticity>  (276) 
1

>  <ligand_class>  (276) 
phosphine

$$$$
P(2-Cl-Ph)3_130C_dioxane
     RDKit          2D

 22 24  0  0  0  0  0  0  0  0999 V2000
    4.5000   -2.5981    0.0000 Cl  0  0  0  0  0  0  0  0  0  0  0  0
    3.0000   -2.5981    0.0000 C   0  0  0  0  0  0  0  0  0  0  0  0
    2.2500   -3.8971    0.0000 C   0  0  0  0  0  0  0  0  0  0  0  0
    0.7500   -3.8971    0.0000 C   0  0  0  0  0  0  0  0  0  0  0  0
   -0.0000   -2.5981    0.0000 C   0  0  0  0  0  0  0  0  0  0  0  0
    0.7500   -1.2990    0.0000 C   0  0  0  0  0  0  0  0  0  0  0  0
    0.0000    0.0000    0.0000 P   0  0  0  0  0  0  0  0  0  0  0  0
    0.7500    1.2990    0.0000 C   0  0  0  0  0  0  0  0  0  0  0  0
    2.2500    1.2990    0.0000 C   0  0  0  0  0  0  0  0  0  0  0  0
    3.0000    2.5981    0.0000 C   0  0  0  0  0  0  0  0  0  0  0  0
    2.2500    3.8971    0.0000 C   0  0  0  0  0  0  0  0  0  0  0  0
    0.7500    3.8971    0.0000 C   0  0  0  0  0  0  0  0  0  0  0  0
    0.0000    5.1962    0.0000 Cl  0  0  0  0  0  0  0  0  0  0  0  0
    0.0000    2.5981    0.0000 C   0  0  0  0  0  0  0  0  0  0  0  0
   -1.5000    0.0000    0.0000 C   0  0  0  0  0  0  0  0  0  0  0  0
   -2.2500    1.2990    0.0000 C   0  0  0  0  0  0  0  0  0  0  0  0
   -3.7500    1.2990    0.0000 C   0  0  0  0  0  0  0  0  0  0  0  0
   -4.5000    0.0000    0.0000 C   0  0  0  0  0  0  0  0  0  0  0  0
   -3.7500   -1.2990    0.0000 C   0  0  0  0  0  0  0  0  0  0  0  0
   -4.5000   -2.5981    0.0000 Cl  0  0  0  0  0  0  0  0  0  0  0  0
   -2.2500   -1.2990    0.0000 C   0  0  0  0  0  0  0  0  0  0  0  0
    2.2500   -1.2990    0.0000 C   0  0  0  0  0  0  0  0  0  0  0  0
  1  2  1  0
  2  3  2  0
  3  4  1  0
  4  5  2  0
  5  6  1  0
  6  7  1  0
  7  8  1  0
  8  9  2  0
  9 10  1  0
 10 11  2  0
 11 12  1  0
 12 13  1  0
 12 14  2  0
  7 15  1  0
 15 16  2  0
 16 17  1  0
 17 18  2  0
 18 19  1  0
 19 20  1  0
 19 21  2  0
  6 22  2  0
 22  2  1  0
 14  8  1  0
 21 15  1  0
M  END
>  <linear_selectivity>  (277) 
34

>  <denticity>  (277) 
1

>  <ligand_class>  (277) 
phosphine

$$$$
P(2-Cl-Ph)3_130C_benzene
     RDKit          2D

 22 24  0  0  0  0  0  0  0  0999 V2000
    4.5000   -2.5981    0.0000 Cl  0  0  0  0  0  0  0  0  0  0  0  0
    3.0000   -2.5981    0.0000 C   0  0  0  0  0  0  0  0  0  0  0  0
    2.2500   -3.8971    0.0000 C   0  0  0  0  0  0  0  0  0  0  0  0
    0.7500   -3.8971    0.0000 C   0  0  0  0  0  0  0  0  0  0  0  0
   -0.0000   -2.5981    0.0000 C   0  0  0  0  0  0  0  0  0  0  0  0
    0.7500   -1.2990    0.0000 C   0  0  0  0  0  0  0  0  0  0  0  0
    0.0000    0.0000    0.0000 P   0  0  0  0  0  0  0  0  0  0  0  0
    0.7500    1.2990    0.0000 C   0  0  0  0  0  0  0  0  0  0  0  0
    2.2500    1.2990    0.0000 C   0  0  0  0  0  0  0  0  0  0  0  0
    3.0000    2.5981    0.0000 C   0  0  0  0  0  0  0  0  0  0  0  0
    2.2500    3.8971    0.0000 C   0  0  0  0  0  0  0  0  0  0  0  0
    0.7500    3.8971    0.0000 C   0  0  0  0  0  0  0  0  0  0  0  0
    0.0000    5.1962    0.0000 Cl  0  0  0  0  0  0  0  0  0  0  0  0
    0.0000    2.5981    0.0000 C   0  0  0  0  0  0  0  0  0  0  0  0
   -1.5000    0.0000    0.0000 C   0  0  0  0  0  0  0  0  0  0  0  0
   -2.2500    1.2990    0.0000 C   0  0  0  0  0  0  0  0  0  0  0  0
   -3.7500    1.2990    0.0000 C   0  0  0  0  0  0  0  0  0  0  0  0
   -4.5000    0.0000    0.0000 C   0  0  0  0  0  0  0  0  0  0  0  0
   -3.7500   -1.2990    0.0000 C   0  0  0  0  0  0  0  0  0  0  0  0
   -4.5000   -2.5981    0.0000 Cl  0  0  0  0  0  0  0  0  0  0  0  0
   -2.2500   -1.2990    0.0000 C   0  0  0  0  0  0  0  0  0  0  0  0
    2.2500   -1.2990    0.0000 C   0  0  0  0  0  0  0  0  0  0  0  0
  1  2  1  0
  2  3  2  0
  3  4  1  0
  4  5  2  0
  5  6  1  0
  6  7  1  0
  7  8  1  0
  8  9  2  0
  9 10  1  0
 10 11  2  0
 11 12  1  0
 12 13  1  0
 12 14  2  0
  7 15  1  0
 15 16  2  0
 16 17  1  0
 17 18  2  0
 18 19  1  0
 19 20  1  0
 19 21  2  0
  6 22  2  0
 22  2  1  0
 14  8  1  0
 21 15  1  0
M  END
>  <linear_selectivity>  (278) 
35

>  <denticity>  (278) 
1

>  <ligand_class>  (278) 
phosphine

$$$$
P(4-Cl-Ph)3
     RDKit          2D

 22 24  0  0  0  0  0  0  0  0999 V2000
    6.0000   -0.0000    0.0000 Cl  0  0  0  0  0  0  0  0  0  0  0  0
    4.5000   -0.0000    0.0000 C   0  0  0  0  0  0  0  0  0  0  0  0
    3.7500   -1.2990    0.0000 C   0  0  0  0  0  0  0  0  0  0  0  0
    2.2500   -1.2990    0.0000 C   0  0  0  0  0  0  0  0  0  0  0  0
    1.5000   -0.0000    0.0000 C   0  0  0  0  0  0  0  0  0  0  0  0
    0.0000   -0.0000    0.0000 P   0  0  0  0  0  0  0  0  0  0  0  0
   -0.7500    1.2990    0.0000 C   0  0  0  0  0  0  0  0  0  0  0  0
    0.0000    2.5981    0.0000 C   0  0  0  0  0  0  0  0  0  0  0  0
   -0.7500    3.8971    0.0000 C   0  0  0  0  0  0  0  0  0  0  0  0
   -2.2500    3.8971    0.0000 C   0  0  0  0  0  0  0  0  0  0  0  0
   -3.0000    5.1962    0.0000 Cl  0  0  0  0  0  0  0  0  0  0  0  0
   -3.0000    2.5981    0.0000 C   0  0  0  0  0  0  0  0  0  0  0  0
   -2.2500    1.2990    0.0000 C   0  0  0  0  0  0  0  0  0  0  0  0
   -0.7500   -1.2990    0.0000 C   0  0  0  0  0  0  0  0  0  0  0  0
   -2.2500   -1.2990    0.0000 C   0  0  0  0  0  0  0  0  0  0  0  0
   -3.0000   -2.5981    0.0000 C   0  0  0  0  0  0  0  0  0  0  0  0
   -2.2500   -3.8971    0.0000 C   0  0  0  0  0  0  0  0  0  0  0  0
   -3.0000   -5.1962    0.0000 Cl  0  0  0  0  0  0  0  0  0  0  0  0
   -0.7500   -3.8971    0.0000 C   0  0  0  0  0  0  0  0  0  0  0  0
   -0.0000   -2.5981    0.0000 C   0  0  0  0  0  0  0  0  0  0  0  0
    2.2500    1.2990    0.0000 C   0  0  0  0  0  0  0  0  0  0  0  0
    3.7500    1.2990    0.0000 C   0  0  0  0  0  0  0  0  0  0  0  0
  1  2  1  0
  2  3  2  0
  3  4  1  0
  4  5  2  0
  5  6  1  0
  6  7  1  0
  7  8  2  0
  8  9  1  0
  9 10  2  0
 10 11  1  0
 10 12  1  0
 12 13  2  0
  6 14  1  0
 14 15  2  0
 15 16  1  0
 16 17  2  0
 17 18  1  0
 17 19  1  0
 19 20  2  0
  5 21  1  0
 21 22  2  0
 22  2  1  0
 13  7  1  0
 20 14  1  0
M  END
>  <linear_selectivity>  (279) 
32

>  <denticity>  (279) 
1

>  <ligand_class>  (279) 
phosphine

$$$$
P(4-Cl-Ph)3_70C_toluene
     RDKit          2D

 22 24  0  0  0  0  0  0  0  0999 V2000
    6.0000   -0.0000    0.0000 Cl  0  0  0  0  0  0  0  0  0  0  0  0
    4.5000   -0.0000    0.0000 C   0  0  0  0  0  0  0  0  0  0  0  0
    3.7500   -1.2990    0.0000 C   0  0  0  0  0  0  0  0  0  0  0  0
    2.2500   -1.2990    0.0000 C   0  0  0  0  0  0  0  0  0  0  0  0
    1.5000   -0.0000    0.0000 C   0  0  0  0  0  0  0  0  0  0  0  0
    0.0000   -0.0000    0.0000 P   0  0  0  0  0  0  0  0  0  0  0  0
   -0.7500    1.2990    0.0000 C   0  0  0  0  0  0  0  0  0  0  0  0
    0.0000    2.5981    0.0000 C   0  0  0  0  0  0  0  0  0  0  0  0
   -0.7500    3.8971    0.0000 C   0  0  0  0  0  0  0  0  0  0  0  0
   -2.2500    3.8971    0.0000 C   0  0  0  0  0  0  0  0  0  0  0  0
   -3.0000    5.1962    0.0000 Cl  0  0  0  0  0  0  0  0  0  0  0  0
   -3.0000    2.5981    0.0000 C   0  0  0  0  0  0  0  0  0  0  0  0
   -2.2500    1.2990    0.0000 C   0  0  0  0  0  0  0  0  0  0  0  0
   -0.7500   -1.2990    0.0000 C   0  0  0  0  0  0  0  0  0  0  0  0
   -2.2500   -1.2990    0.0000 C   0  0  0  0  0  0  0  0  0  0  0  0
   -3.0000   -2.5981    0.0000 C   0  0  0  0  0  0  0  0  0  0  0  0
   -2.2500   -3.8971    0.0000 C   0  0  0  0  0  0  0  0  0  0  0  0
   -3.0000   -5.1962    0.0000 Cl  0  0  0  0  0  0  0  0  0  0  0  0
   -0.7500   -3.8971    0.0000 C   0  0  0  0  0  0  0  0  0  0  0  0
   -0.0000   -2.5981    0.0000 C   0  0  0  0  0  0  0  0  0  0  0  0
    2.2500    1.2990    0.0000 C   0  0  0  0  0  0  0  0  0  0  0  0
    3.7500    1.2990    0.0000 C   0  0  0  0  0  0  0  0  0  0  0  0
  1  2  1  0
  2  3  2  0
  3  4  1  0
  4  5  2  0
  5  6  1  0
  6  7  1  0
  7  8  2  0
  8  9  1  0
  9 10  2  0
 10 11  1  0
 10 12  1  0
 12 13  2  0
  6 14  1  0
 14 15  2  0
 15 16  1  0
 16 17  2  0
 17 18  1  0
 17 19  1  0
 19 20  2  0
  5 21  1  0
 21 22  2  0
 22  2  1  0
 13  7  1  0
 20 14  1  0
M  END
>  <linear_selectivity>  (280) 
38

>  <denticity>  (280) 
1

>  <ligand_class>  (280) 
phosphine

$$$$
P(4-Cl-Ph)3_70C_dioxane
     RDKit          2D

 22 24  0  0  0  0  0  0  0  0999 V2000
    6.0000   -0.0000    0.0000 Cl  0  0  0  0  0  0  0  0  0  0  0  0
    4.5000   -0.0000    0.0000 C   0  0  0  0  0  0  0  0  0  0  0  0
    3.7500   -1.2990    0.0000 C   0  0  0  0  0  0  0  0  0  0  0  0
    2.2500   -1.2990    0.0000 C   0  0  0  0  0  0  0  0  0  0  0  0
    1.5000   -0.0000    0.0000 C   0  0  0  0  0  0  0  0  0  0  0  0
    0.0000   -0.0000    0.0000 P   0  0  0  0  0  0  0  0  0  0  0  0
   -0.7500    1.2990    0.0000 C   0  0  0  0  0  0  0  0  0  0  0  0
    0.0000    2.5981    0.0000 C   0  0  0  0  0  0  0  0  0  0  0  0
   -0.7500    3.8971    0.0000 C   0  0  0  0  0  0  0  0  0  0  0  0
   -2.2500    3.8971    0.0000 C   0  0  0  0  0  0  0  0  0  0  0  0
   -3.0000    5.1962    0.0000 Cl  0  0  0  0  0  0  0  0  0  0  0  0
   -3.0000    2.5981    0.0000 C   0  0  0  0  0  0  0  0  0  0  0  0
   -2.2500    1.2990    0.0000 C   0  0  0  0  0  0  0  0  0  0  0  0
   -0.7500   -1.2990    0.0000 C   0  0  0  0  0  0  0  0  0  0  0  0
   -2.2500   -1.2990    0.0000 C   0  0  0  0  0  0  0  0  0  0  0  0
   -3.0000   -2.5981    0.0000 C   0  0  0  0  0  0  0  0  0  0  0  0
   -2.2500   -3.8971    0.0000 C   0  0  0  0  0  0  0  0  0  0  0  0
   -3.0000   -5.1962    0.0000 Cl  0  0  0  0  0  0  0  0  0  0  0  0
   -0.7500   -3.8971    0.0000 C   0  0  0  0  0  0  0  0  0  0  0  0
   -0.0000   -2.5981    0.0000 C   0  0  0  0  0  0  0  0  0  0  0  0
    2.2500    1.2990    0.0000 C   0  0  0  0  0  0  0  0  0  0  0  0
    3.7500    1.2990    0.0000 C   0  0  0  0  0  0  0  0  0  0  0  0
  1  2  1  0
  2  3  2  0
  3  4  1  0
  4  5  2  0
  5  6  1  0
  6  7  1  0
  7  8  2  0
  8  9  1  0
  9 10  2  0
 10 11  1  0
 10 12  1  0
 12 13  2  0
  6 14  1  0
 14 15  2  0
 15 16  1  0
 16 17  2  0
 17 18  1  0
 17 19  1  0
 19 20  2  0
  5 21  1  0
 21 22  2  0
 22  2  1  0
 13  7  1  0
 20 14  1  0
M  END
>  <linear_selectivity>  (281) 
33

>  <denticity>  (281) 
1

>  <ligand_class>  (281) 
phosphine

$$$$
P(4-Cl-Ph)3_70C_hexane
     RDKit          2D

 22 24  0  0  0  0  0  0  0  0999 V2000
    6.0000   -0.0000    0.0000 Cl  0  0  0  0  0  0  0  0  0  0  0  0
    4.5000   -0.0000    0.0000 C   0  0  0  0  0  0  0  0  0  0  0  0
    3.7500   -1.2990    0.0000 C   0  0  0  0  0  0  0  0  0  0  0  0
    2.2500   -1.2990    0.0000 C   0  0  0  0  0  0  0  0  0  0  0  0
    1.5000   -0.0000    0.0000 C   0  0  0  0  0  0  0  0  0  0  0  0
    0.0000   -0.0000    0.0000 P   0  0  0  0  0  0  0  0  0  0  0  0
   -0.7500    1.2990    0.0000 C   0  0  0  0  0  0  0  0  0  0  0  0
    0.0000    2.5981    0.0000 C   0  0  0  0  0  0  0  0  0  0  0  0
   -0.7500    3.8971    0.0000 C   0  0  0  0  0  0  0  0  0  0  0  0
   -2.2500    3.8971    0.0000 C   0  0  0  0  0  0  0  0  0  0  0  0
   -3.0000    5.1962    0.0000 Cl  0  0  0  0  0  0  0  0  0  0  0  0
   -3.0000    2.5981    0.0000 C   0  0  0  0  0  0  0  0  0  0  0  0
   -2.2500    1.2990    0.0000 C   0  0  0  0  0  0  0  0  0  0  0  0
   -0.7500   -1.2990    0.0000 C   0  0  0  0  0  0  0  0  0  0  0  0
   -2.2500   -1.2990    0.0000 C   0  0  0  0  0  0  0  0  0  0  0  0
   -3.0000   -2.5981    0.0000 C   0  0  0  0  0  0  0  0  0  0  0  0
   -2.2500   -3.8971    0.0000 C   0  0  0  0  0  0  0  0  0  0  0  0
   -3.0000   -5.1962    0.0000 Cl  0  0  0  0  0  0  0  0  0  0  0  0
   -0.7500   -3.8971    0.0000 C   0  0  0  0  0  0  0  0  0  0  0  0
   -0.0000   -2.5981    0.0000 C   0  0  0  0  0  0  0  0  0  0  0  0
    2.2500    1.2990    0.0000 C   0  0  0  0  0  0  0  0  0  0  0  0
    3.7500    1.2990    0.0000 C   0  0  0  0  0  0  0  0  0  0  0  0
  1  2  1  0
  2  3  2  0
  3  4  1  0
  4  5  2  0
  5  6  1  0
  6  7  1  0
  7  8  2  0
  8  9  1  0
  9 10  2  0
 10 11  1  0
 10 12  1  0
 12 13  2  0
  6 14  1  0
 14 15  2  0
 15 16  1  0
 16 17  2  0
 17 18  1  0
 17 19  1  0
 19 20  2  0
  5 21  1  0
 21 22  2  0
 22  2  1  0
 13  7  1  0
 20 14  1  0
M  END
>  <linear_selectivity>  (282) 
39

>  <denticity>  (282) 
1

>  <ligand_class>  (282) 
phosphine

$$$$
P(4-Cl-Ph)3_70C_benzene
     RDKit          2D

 22 24  0  0  0  0  0  0  0  0999 V2000
    6.0000   -0.0000    0.0000 Cl  0  0  0  0  0  0  0  0  0  0  0  0
    4.5000   -0.0000    0.0000 C   0  0  0  0  0  0  0  0  0  0  0  0
    3.7500   -1.2990    0.0000 C   0  0  0  0  0  0  0  0  0  0  0  0
    2.2500   -1.2990    0.0000 C   0  0  0  0  0  0  0  0  0  0  0  0
    1.5000   -0.0000    0.0000 C   0  0  0  0  0  0  0  0  0  0  0  0
    0.0000   -0.0000    0.0000 P   0  0  0  0  0  0  0  0  0  0  0  0
   -0.7500    1.2990    0.0000 C   0  0  0  0  0  0  0  0  0  0  0  0
    0.0000    2.5981    0.0000 C   0  0  0  0  0  0  0  0  0  0  0  0
   -0.7500    3.8971    0.0000 C   0  0  0  0  0  0  0  0  0  0  0  0
   -2.2500    3.8971    0.0000 C   0  0  0  0  0  0  0  0  0  0  0  0
   -3.0000    5.1962    0.0000 Cl  0  0  0  0  0  0  0  0  0  0  0  0
   -3.0000    2.5981    0.0000 C   0  0  0  0  0  0  0  0  0  0  0  0
   -2.2500    1.2990    0.0000 C   0  0  0  0  0  0  0  0  0  0  0  0
   -0.7500   -1.2990    0.0000 C   0  0  0  0  0  0  0  0  0  0  0  0
   -2.2500   -1.2990    0.0000 C   0  0  0  0  0  0  0  0  0  0  0  0
   -3.0000   -2.5981    0.0000 C   0  0  0  0  0  0  0  0  0  0  0  0
   -2.2500   -3.8971    0.0000 C   0  0  0  0  0  0  0  0  0  0  0  0
   -3.0000   -5.1962    0.0000 Cl  0  0  0  0  0  0  0  0  0  0  0  0
   -0.7500   -3.8971    0.0000 C   0  0  0  0  0  0  0  0  0  0  0  0
   -0.0000   -2.5981    0.0000 C   0  0  0  0  0  0  0  0  0  0  0  0
    2.2500    1.2990    0.0000 C   0  0  0  0  0  0  0  0  0  0  0  0
    3.7500    1.2990    0.0000 C   0  0  0  0  0  0  0  0  0  0  0  0
  1  2  1  0
  2  3  2  0
  3  4  1  0
  4  5  2  0
  5  6  1  0
  6  7  1  0
  7  8  2  0
  8  9  1  0
  9 10  2  0
 10 11  1  0
 10 12  1  0
 12 13  2  0
  6 14  1  0
 14 15  2  0
 15 16  1  0
 16 17  2  0
 17 18  1  0
 17 19  1  0
 19 20  2  0
  5 21  1  0
 21 22  2  0
 22  2  1  0
 13  7  1  0
 20 14  1  0
M  END
>  <linear_selectivity>  (283) 
36

>  <denticity>  (283) 
1

>  <ligand_class>  (283) 
phosphine

$$$$
P(4-Cl-Ph)3_80C_THF
     RDKit          2D

 22 24  0  0  0  0  0  0  0  0999 V2000
    6.0000   -0.0000    0.0000 Cl  0  0  0  0  0  0  0  0  0  0  0  0
    4.5000   -0.0000    0.0000 C   0  0  0  0  0  0  0  0  0  0  0  0
    3.7500   -1.2990    0.0000 C   0  0  0  0  0  0  0  0  0  0  0  0
    2.2500   -1.2990    0.0000 C   0  0  0  0  0  0  0  0  0  0  0  0
    1.5000   -0.0000    0.0000 C   0  0  0  0  0  0  0  0  0  0  0  0
    0.0000   -0.0000    0.0000 P   0  0  0  0  0  0  0  0  0  0  0  0
   -0.7500    1.2990    0.0000 C   0  0  0  0  0  0  0  0  0  0  0  0
    0.0000    2.5981    0.0000 C   0  0  0  0  0  0  0  0  0  0  0  0
   -0.7500    3.8971    0.0000 C   0  0  0  0  0  0  0  0  0  0  0  0
   -2.2500    3.8971    0.0000 C   0  0  0  0  0  0  0  0  0  0  0  0
   -3.0000    5.1962    0.0000 Cl  0  0  0  0  0  0  0  0  0  0  0  0
   -3.0000    2.5981    0.0000 C   0  0  0  0  0  0  0  0  0  0  0  0
   -2.2500    1.2990    0.0000 C   0  0  0  0  0  0  0  0  0  0  0  0
   -0.7500   -1.2990    0.0000 C   0  0  0  0  0  0  0  0  0  0  0  0
   -2.2500   -1.2990    0.0000 C   0  0  0  0  0  0  0  0  0  0  0  0
   -3.0000   -2.5981    0.0000 C   0  0  0  0  0  0  0  0  0  0  0  0
   -2.2500   -3.8971    0.0000 C   0  0  0  0  0  0  0  0  0  0  0  0
   -3.0000   -5.1962    0.0000 Cl  0  0  0  0  0  0  0  0  0  0  0  0
   -0.7500   -3.8971    0.0000 C   0  0  0  0  0  0  0  0  0  0  0  0
   -0.0000   -2.5981    0.0000 C   0  0  0  0  0  0  0  0  0  0  0  0
    2.2500    1.2990    0.0000 C   0  0  0  0  0  0  0  0  0  0  0  0
    3.7500    1.2990    0.0000 C   0  0  0  0  0  0  0  0  0  0  0  0
  1  2  1  0
  2  3  2  0
  3  4  1  0
  4  5  2  0
  5  6  1  0
  6  7  1  0
  7  8  2  0
  8  9  1  0
  9 10  2  0
 10 11  1  0
 10 12  1  0
 12 13  2  0
  6 14  1  0
 14 15  2  0
 15 16  1  0
 16 17  2  0
 17 18  1  0
 17 19  1  0
 19 20  2  0
  5 21  1  0
 21 22  2  0
 22  2  1  0
 13  7  1  0
 20 14  1  0
M  END
>  <linear_selectivity>  (284) 
33

>  <denticity>  (284) 
1

>  <ligand_class>  (284) 
phosphine

$$$$
P(4-Cl-Ph)3_80C_dioxane
     RDKit          2D

 22 24  0  0  0  0  0  0  0  0999 V2000
    6.0000   -0.0000    0.0000 Cl  0  0  0  0  0  0  0  0  0  0  0  0
    4.5000   -0.0000    0.0000 C   0  0  0  0  0  0  0  0  0  0  0  0
    3.7500   -1.2990    0.0000 C   0  0  0  0  0  0  0  0  0  0  0  0
    2.2500   -1.2990    0.0000 C   0  0  0  0  0  0  0  0  0  0  0  0
    1.5000   -0.0000    0.0000 C   0  0  0  0  0  0  0  0  0  0  0  0
    0.0000   -0.0000    0.0000 P   0  0  0  0  0  0  0  0  0  0  0  0
   -0.7500    1.2990    0.0000 C   0  0  0  0  0  0  0  0  0  0  0  0
    0.0000    2.5981    0.0000 C   0  0  0  0  0  0  0  0  0  0  0  0
   -0.7500    3.8971    0.0000 C   0  0  0  0  0  0  0  0  0  0  0  0
   -2.2500    3.8971    0.0000 C   0  0  0  0  0  0  0  0  0  0  0  0
   -3.0000    5.1962    0.0000 Cl  0  0  0  0  0  0  0  0  0  0  0  0
   -3.0000    2.5981    0.0000 C   0  0  0  0  0  0  0  0  0  0  0  0
   -2.2500    1.2990    0.0000 C   0  0  0  0  0  0  0  0  0  0  0  0
   -0.7500   -1.2990    0.0000 C   0  0  0  0  0  0  0  0  0  0  0  0
   -2.2500   -1.2990    0.0000 C   0  0  0  0  0  0  0  0  0  0  0  0
   -3.0000   -2.5981    0.0000 C   0  0  0  0  0  0  0  0  0  0  0  0
   -2.2500   -3.8971    0.0000 C   0  0  0  0  0  0  0  0  0  0  0  0
   -3.0000   -5.1962    0.0000 Cl  0  0  0  0  0  0  0  0  0  0  0  0
   -0.7500   -3.8971    0.0000 C   0  0  0  0  0  0  0  0  0  0  0  0
   -0.0000   -2.5981    0.0000 C   0  0  0  0  0  0  0  0  0  0  0  0
    2.2500    1.2990    0.0000 C   0  0  0  0  0  0  0  0  0  0  0  0
    3.7500    1.2990    0.0000 C   0  0  0  0  0  0  0  0  0  0  0  0
  1  2  1  0
  2  3  2  0
  3  4  1  0
  4  5  2  0
  5  6  1  0
  6  7  1  0
  7  8  2  0
  8  9  1  0
  9 10  2  0
 10 11  1  0
 10 12  1  0
 12 13  2  0
  6 14  1  0
 14 15  2  0
 15 16  1  0
 16 17  2  0
 17 18  1  0
 17 19  1  0
 19 20  2  0
  5 21  1  0
 21 22  2  0
 22  2  1  0
 13  7  1  0
 20 14  1  0
M  END
>  <linear_selectivity>  (285) 
31

>  <denticity>  (285) 
1

>  <ligand_class>  (285) 
phosphine

$$$$
P(4-Cl-Ph)3_80C_hexane
     RDKit          2D

 22 24  0  0  0  0  0  0  0  0999 V2000
    6.0000   -0.0000    0.0000 Cl  0  0  0  0  0  0  0  0  0  0  0  0
    4.5000   -0.0000    0.0000 C   0  0  0  0  0  0  0  0  0  0  0  0
    3.7500   -1.2990    0.0000 C   0  0  0  0  0  0  0  0  0  0  0  0
    2.2500   -1.2990    0.0000 C   0  0  0  0  0  0  0  0  0  0  0  0
    1.5000   -0.0000    0.0000 C   0  0  0  0  0  0  0  0  0  0  0  0
    0.0000   -0.0000    0.0000 P   0  0  0  0  0  0  0  0  0  0  0  0
   -0.7500    1.2990    0.0000 C   0  0  0  0  0  0  0  0  0  0  0  0
    0.0000    2.5981    0.0000 C   0  0  0  0  0  0  0  0  0  0  0  0
   -0.7500    3.8971    0.0000 C   0  0  0  0  0  0  0  0  0  0  0  0
   -2.2500    3.8971    0.0000 C   0  0  0  0  0  0  0  0  0  0  0  0
   -3.0000    5.1962    0.0000 Cl  0  0  0  0  0  0  0  0  0  0  0  0
   -3.0000    2.5981    0.0000 C   0  0  0  0  0  0  0  0  0  0  0  0
   -2.2500    1.2990    0.0000 C   0  0  0  0  0  0  0  0  0  0  0  0
   -0.7500   -1.2990    0.0000 C   0  0  0  0  0  0  0  0  0  0  0  0
   -2.2500   -1.2990    0.0000 C   0  0  0  0  0  0  0  0  0  0  0  0
   -3.0000   -2.5981    0.0000 C   0  0  0  0  0  0  0  0  0  0  0  0
   -2.2500   -3.8971    0.0000 C   0  0  0  0  0  0  0  0  0  0  0  0
   -3.0000   -5.1962    0.0000 Cl  0  0  0  0  0  0  0  0  0  0  0  0
   -0.7500   -3.8971    0.0000 C   0  0  0  0  0  0  0  0  0  0  0  0
   -0.0000   -2.5981    0.0000 C   0  0  0  0  0  0  0  0  0  0  0  0
    2.2500    1.2990    0.0000 C   0  0  0  0  0  0  0  0  0  0  0  0
    3.7500    1.2990    0.0000 C   0  0  0  0  0  0  0  0  0  0  0  0
  1  2  1  0
  2  3  2  0
  3  4  1  0
  4  5  2  0
  5  6  1  0
  6  7  1  0
  7  8  2  0
  8  9  1  0
  9 10  2  0
 10 11  1  0
 10 12  1  0
 12 13  2  0
  6 14  1  0
 14 15  2  0
 15 16  1  0
 16 17  2  0
 17 18  1  0
 17 19  1  0
 19 20  2  0
  5 21  1  0
 21 22  2  0
 22  2  1  0
 13  7  1  0
 20 14  1  0
M  END
>  <linear_selectivity>  (286) 
38

>  <denticity>  (286) 
1

>  <ligand_class>  (286) 
phosphine

$$$$
P(4-Cl-Ph)3_80C_benzene
     RDKit          2D

 22 24  0  0  0  0  0  0  0  0999 V2000
    6.0000   -0.0000    0.0000 Cl  0  0  0  0  0  0  0  0  0  0  0  0
    4.5000   -0.0000    0.0000 C   0  0  0  0  0  0  0  0  0  0  0  0
    3.7500   -1.2990    0.0000 C   0  0  0  0  0  0  0  0  0  0  0  0
    2.2500   -1.2990    0.0000 C   0  0  0  0  0  0  0  0  0  0  0  0
    1.5000   -0.0000    0.0000 C   0  0  0  0  0  0  0  0  0  0  0  0
    0.0000   -0.0000    0.0000 P   0  0  0  0  0  0  0  0  0  0  0  0
   -0.7500    1.2990    0.0000 C   0  0  0  0  0  0  0  0  0  0  0  0
    0.0000    2.5981    0.0000 C   0  0  0  0  0  0  0  0  0  0  0  0
   -0.7500    3.8971    0.0000 C   0  0  0  0  0  0  0  0  0  0  0  0
   -2.2500    3.8971    0.0000 C   0  0  0  0  0  0  0  0  0  0  0  0
   -3.0000    5.1962    0.0000 Cl  0  0  0  0  0  0  0  0  0  0  0  0
   -3.0000    2.5981    0.0000 C   0  0  0  0  0  0  0  0  0  0  0  0
   -2.2500    1.2990    0.0000 C   0  0  0  0  0  0  0  0  0  0  0  0
   -0.7500   -1.2990    0.0000 C   0  0  0  0  0  0  0  0  0  0  0  0
   -2.2500   -1.2990    0.0000 C   0  0  0  0  0  0  0  0  0  0  0  0
   -3.0000   -2.5981    0.0000 C   0  0  0  0  0  0  0  0  0  0  0  0
   -2.2500   -3.8971    0.0000 C   0  0  0  0  0  0  0  0  0  0  0  0
   -3.0000   -5.1962    0.0000 Cl  0  0  0  0  0  0  0  0  0  0  0  0
   -0.7500   -3.8971    0.0000 C   0  0  0  0  0  0  0  0  0  0  0  0
   -0.0000   -2.5981    0.0000 C   0  0  0  0  0  0  0  0  0  0  0  0
    2.2500    1.2990    0.0000 C   0  0  0  0  0  0  0  0  0  0  0  0
    3.7500    1.2990    0.0000 C   0  0  0  0  0  0  0  0  0  0  0  0
  1  2  1  0
  2  3  2  0
  3  4  1  0
  4  5  2  0
  5  6  1  0
  6  7  1  0
  7  8  2  0
  8  9  1  0
  9 10  2  0
 10 11  1  0
 10 12  1  0
 12 13  2  0
  6 14  1  0
 14 15  2  0
 15 16  1  0
 16 17  2  0
 17 18  1  0
 17 19  1  0
 19 20  2  0
  5 21  1  0
 21 22  2  0
 22  2  1  0
 13  7  1  0
 20 14  1  0
M  END
>  <linear_selectivity>  (287) 
33

>  <denticity>  (287) 
1

>  <ligand_class>  (287) 
phosphine

$$$$
P(4-Cl-Ph)3_90C_toluene
     RDKit          2D

 22 24  0  0  0  0  0  0  0  0999 V2000
    6.0000   -0.0000    0.0000 Cl  0  0  0  0  0  0  0  0  0  0  0  0
    4.5000   -0.0000    0.0000 C   0  0  0  0  0  0  0  0  0  0  0  0
    3.7500   -1.2990    0.0000 C   0  0  0  0  0  0  0  0  0  0  0  0
    2.2500   -1.2990    0.0000 C   0  0  0  0  0  0  0  0  0  0  0  0
    1.5000   -0.0000    0.0000 C   0  0  0  0  0  0  0  0  0  0  0  0
    0.0000   -0.0000    0.0000 P   0  0  0  0  0  0  0  0  0  0  0  0
   -0.7500    1.2990    0.0000 C   0  0  0  0  0  0  0  0  0  0  0  0
    0.0000    2.5981    0.0000 C   0  0  0  0  0  0  0  0  0  0  0  0
   -0.7500    3.8971    0.0000 C   0  0  0  0  0  0  0  0  0  0  0  0
   -2.2500    3.8971    0.0000 C   0  0  0  0  0  0  0  0  0  0  0  0
   -3.0000    5.1962    0.0000 Cl  0  0  0  0  0  0  0  0  0  0  0  0
   -3.0000    2.5981    0.0000 C   0  0  0  0  0  0  0  0  0  0  0  0
   -2.2500    1.2990    0.0000 C   0  0  0  0  0  0  0  0  0  0  0  0
   -0.7500   -1.2990    0.0000 C   0  0  0  0  0  0  0  0  0  0  0  0
   -2.2500   -1.2990    0.0000 C   0  0  0  0  0  0  0  0  0  0  0  0
   -3.0000   -2.5981    0.0000 C   0  0  0  0  0  0  0  0  0  0  0  0
   -2.2500   -3.8971    0.0000 C   0  0  0  0  0  0  0  0  0  0  0  0
   -3.0000   -5.1962    0.0000 Cl  0  0  0  0  0  0  0  0  0  0  0  0
   -0.7500   -3.8971    0.0000 C   0  0  0  0  0  0  0  0  0  0  0  0
   -0.0000   -2.5981    0.0000 C   0  0  0  0  0  0  0  0  0  0  0  0
    2.2500    1.2990    0.0000 C   0  0  0  0  0  0  0  0  0  0  0  0
    3.7500    1.2990    0.0000 C   0  0  0  0  0  0  0  0  0  0  0  0
  1  2  1  0
  2  3  2  0
  3  4  1  0
  4  5  2  0
  5  6  1  0
  6  7  1  0
  7  8  2  0
  8  9  1  0
  9 10  2  0
 10 11  1  0
 10 12  1  0
 12 13  2  0
  6 14  1  0
 14 15  2  0
 15 16  1  0
 16 17  2  0
 17 18  1  0
 17 19  1  0
 19 20  2  0
  5 21  1  0
 21 22  2  0
 22  2  1  0
 13  7  1  0
 20 14  1  0
M  END
>  <linear_selectivity>  (288) 
31

>  <denticity>  (288) 
1

>  <ligand_class>  (288) 
phosphine

$$$$
P(4-Cl-Ph)3_90C_benzene
     RDKit          2D

 22 24  0  0  0  0  0  0  0  0999 V2000
    6.0000   -0.0000    0.0000 Cl  0  0  0  0  0  0  0  0  0  0  0  0
    4.5000   -0.0000    0.0000 C   0  0  0  0  0  0  0  0  0  0  0  0
    3.7500   -1.2990    0.0000 C   0  0  0  0  0  0  0  0  0  0  0  0
    2.2500   -1.2990    0.0000 C   0  0  0  0  0  0  0  0  0  0  0  0
    1.5000   -0.0000    0.0000 C   0  0  0  0  0  0  0  0  0  0  0  0
    0.0000   -0.0000    0.0000 P   0  0  0  0  0  0  0  0  0  0  0  0
   -0.7500    1.2990    0.0000 C   0  0  0  0  0  0  0  0  0  0  0  0
    0.0000    2.5981    0.0000 C   0  0  0  0  0  0  0  0  0  0  0  0
   -0.7500    3.8971    0.0000 C   0  0  0  0  0  0  0  0  0  0  0  0
   -2.2500    3.8971    0.0000 C   0  0  0  0  0  0  0  0  0  0  0  0
   -3.0000    5.1962    0.0000 Cl  0  0  0  0  0  0  0  0  0  0  0  0
   -3.0000    2.5981    0.0000 C   0  0  0  0  0  0  0  0  0  0  0  0
   -2.2500    1.2990    0.0000 C   0  0  0  0  0  0  0  0  0  0  0  0
   -0.7500   -1.2990    0.0000 C   0  0  0  0  0  0  0  0  0  0  0  0
   -2.2500   -1.2990    0.0000 C   0  0  0  0  0  0  0  0  0  0  0  0
   -3.0000   -2.5981    0.0000 C   0  0  0  0  0  0  0  0  0  0  0  0
   -2.2500   -3.8971    0.0000 C   0  0  0  0  0  0  0  0  0  0  0  0
   -3.0000   -5.1962    0.0000 Cl  0  0  0  0  0  0  0  0  0  0  0  0
   -0.7500   -3.8971    0.0000 C   0  0  0  0  0  0  0  0  0  0  0  0
   -0.0000   -2.5981    0.0000 C   0  0  0  0  0  0  0  0  0  0  0  0
    2.2500    1.2990    0.0000 C   0  0  0  0  0  0  0  0  0  0  0  0
    3.7500    1.2990    0.0000 C   0  0  0  0  0  0  0  0  0  0  0  0
  1  2  1  0
  2  3  2  0
  3  4  1  0
  4  5  2  0
  5  6  1  0
  6  7  1  0
  7  8  2  0
  8  9  1  0
  9 10  2  0
 10 11  1  0
 10 12  1  0
 12 13  2  0
  6 14  1  0
 14 15  2  0
 15 16  1  0
 16 17  2  0
 17 18  1  0
 17 19  1  0
 19 20  2  0
  5 21  1  0
 21 22  2  0
 22  2  1  0
 13  7  1  0
 20 14  1  0
M  END
>  <linear_selectivity>  (289) 
33

>  <denticity>  (289) 
1

>  <ligand_class>  (289) 
phosphine

$$$$
P(4-Cl-Ph)3_90C_xylene
     RDKit          2D

 22 24  0  0  0  0  0  0  0  0999 V2000
    6.0000   -0.0000    0.0000 Cl  0  0  0  0  0  0  0  0  0  0  0  0
    4.5000   -0.0000    0.0000 C   0  0  0  0  0  0  0  0  0  0  0  0
    3.7500   -1.2990    0.0000 C   0  0  0  0  0  0  0  0  0  0  0  0
    2.2500   -1.2990    0.0000 C   0  0  0  0  0  0  0  0  0  0  0  0
    1.5000   -0.0000    0.0000 C   0  0  0  0  0  0  0  0  0  0  0  0
    0.0000   -0.0000    0.0000 P   0  0  0  0  0  0  0  0  0  0  0  0
   -0.7500    1.2990    0.0000 C   0  0  0  0  0  0  0  0  0  0  0  0
    0.0000    2.5981    0.0000 C   0  0  0  0  0  0  0  0  0  0  0  0
   -0.7500    3.8971    0.0000 C   0  0  0  0  0  0  0  0  0  0  0  0
   -2.2500    3.8971    0.0000 C   0  0  0  0  0  0  0  0  0  0  0  0
   -3.0000    5.1962    0.0000 Cl  0  0  0  0  0  0  0  0  0  0  0  0
   -3.0000    2.5981    0.0000 C   0  0  0  0  0  0  0  0  0  0  0  0
   -2.2500    1.2990    0.0000 C   0  0  0  0  0  0  0  0  0  0  0  0
   -0.7500   -1.2990    0.0000 C   0  0  0  0  0  0  0  0  0  0  0  0
   -2.2500   -1.2990    0.0000 C   0  0  0  0  0  0  0  0  0  0  0  0
   -3.0000   -2.5981    0.0000 C   0  0  0  0  0  0  0  0  0  0  0  0
   -2.2500   -3.8971    0.0000 C   0  0  0  0  0  0  0  0  0  0  0  0
   -3.0000   -5.1962    0.0000 Cl  0  0  0  0  0  0  0  0  0  0  0  0
   -0.7500   -3.8971    0.0000 C   0  0  0  0  0  0  0  0  0  0  0  0
   -0.0000   -2.5981    0.0000 C   0  0  0  0  0  0  0  0  0  0  0  0
    2.2500    1.2990    0.0000 C   0  0  0  0  0  0  0  0  0  0  0  0
    3.7500    1.2990    0.0000 C   0  0  0  0  0  0  0  0  0  0  0  0
  1  2  1  0
  2  3  2  0
  3  4  1  0
  4  5  2  0
  5  6  1  0
  6  7  1  0
  7  8  2  0
  8  9  1  0
  9 10  2  0
 10 11  1  0
 10 12  1  0
 12 13  2  0
  6 14  1  0
 14 15  2  0
 15 16  1  0
 16 17  2  0
 17 18  1  0
 17 19  1  0
 19 20  2  0
  5 21  1  0
 21 22  2  0
 22  2  1  0
 13  7  1  0
 20 14  1  0
M  END
>  <linear_selectivity>  (290) 
34

>  <denticity>  (290) 
1

>  <ligand_class>  (290) 
phosphine

$$$$
P(4-Cl-Ph)3_100C_toluene
     RDKit          2D

 22 24  0  0  0  0  0  0  0  0999 V2000
    6.0000   -0.0000    0.0000 Cl  0  0  0  0  0  0  0  0  0  0  0  0
    4.5000   -0.0000    0.0000 C   0  0  0  0  0  0  0  0  0  0  0  0
    3.7500   -1.2990    0.0000 C   0  0  0  0  0  0  0  0  0  0  0  0
    2.2500   -1.2990    0.0000 C   0  0  0  0  0  0  0  0  0  0  0  0
    1.5000   -0.0000    0.0000 C   0  0  0  0  0  0  0  0  0  0  0  0
    0.0000   -0.0000    0.0000 P   0  0  0  0  0  0  0  0  0  0  0  0
   -0.7500    1.2990    0.0000 C   0  0  0  0  0  0  0  0  0  0  0  0
    0.0000    2.5981    0.0000 C   0  0  0  0  0  0  0  0  0  0  0  0
   -0.7500    3.8971    0.0000 C   0  0  0  0  0  0  0  0  0  0  0  0
   -2.2500    3.8971    0.0000 C   0  0  0  0  0  0  0  0  0  0  0  0
   -3.0000    5.1962    0.0000 Cl  0  0  0  0  0  0  0  0  0  0  0  0
   -3.0000    2.5981    0.0000 C   0  0  0  0  0  0  0  0  0  0  0  0
   -2.2500    1.2990    0.0000 C   0  0  0  0  0  0  0  0  0  0  0  0
   -0.7500   -1.2990    0.0000 C   0  0  0  0  0  0  0  0  0  0  0  0
   -2.2500   -1.2990    0.0000 C   0  0  0  0  0  0  0  0  0  0  0  0
   -3.0000   -2.5981    0.0000 C   0  0  0  0  0  0  0  0  0  0  0  0
   -2.2500   -3.8971    0.0000 C   0  0  0  0  0  0  0  0  0  0  0  0
   -3.0000   -5.1962    0.0000 Cl  0  0  0  0  0  0  0  0  0  0  0  0
   -0.7500   -3.8971    0.0000 C   0  0  0  0  0  0  0  0  0  0  0  0
   -0.0000   -2.5981    0.0000 C   0  0  0  0  0  0  0  0  0  0  0  0
    2.2500    1.2990    0.0000 C   0  0  0  0  0  0  0  0  0  0  0  0
    3.7500    1.2990    0.0000 C   0  0  0  0  0  0  0  0  0  0  0  0
  1  2  1  0
  2  3  2  0
  3  4  1  0
  4  5  2  0
  5  6  1  0
  6  7  1  0
  7  8  2  0
  8  9  1  0
  9 10  2  0
 10 11  1  0
 10 12  1  0
 12 13  2  0
  6 14  1  0
 14 15  2  0
 15 16  1  0
 16 17  2  0
 17 18  1  0
 17 19  1  0
 19 20  2  0
  5 21  1  0
 21 22  2  0
 22  2  1  0
 13  7  1  0
 20 14  1  0
M  END
>  <linear_selectivity>  (291) 
29

>  <denticity>  (291) 
1

>  <ligand_class>  (291) 
phosphine

$$$$
P(4-Cl-Ph)3_100C_THF
     RDKit          2D

 22 24  0  0  0  0  0  0  0  0999 V2000
    6.0000   -0.0000    0.0000 Cl  0  0  0  0  0  0  0  0  0  0  0  0
    4.5000   -0.0000    0.0000 C   0  0  0  0  0  0  0  0  0  0  0  0
    3.7500   -1.2990    0.0000 C   0  0  0  0  0  0  0  0  0  0  0  0
    2.2500   -1.2990    0.0000 C   0  0  0  0  0  0  0  0  0  0  0  0
    1.5000   -0.0000    0.0000 C   0  0  0  0  0  0  0  0  0  0  0  0
    0.0000   -0.0000    0.0000 P   0  0  0  0  0  0  0  0  0  0  0  0
   -0.7500    1.2990    0.0000 C   0  0  0  0  0  0  0  0  0  0  0  0
    0.0000    2.5981    0.0000 C   0  0  0  0  0  0  0  0  0  0  0  0
   -0.7500    3.8971    0.0000 C   0  0  0  0  0  0  0  0  0  0  0  0
   -2.2500    3.8971    0.0000 C   0  0  0  0  0  0  0  0  0  0  0  0
   -3.0000    5.1962    0.0000 Cl  0  0  0  0  0  0  0  0  0  0  0  0
   -3.0000    2.5981    0.0000 C   0  0  0  0  0  0  0  0  0  0  0  0
   -2.2500    1.2990    0.0000 C   0  0  0  0  0  0  0  0  0  0  0  0
   -0.7500   -1.2990    0.0000 C   0  0  0  0  0  0  0  0  0  0  0  0
   -2.2500   -1.2990    0.0000 C   0  0  0  0  0  0  0  0  0  0  0  0
   -3.0000   -2.5981    0.0000 C   0  0  0  0  0  0  0  0  0  0  0  0
   -2.2500   -3.8971    0.0000 C   0  0  0  0  0  0  0  0  0  0  0  0
   -3.0000   -5.1962    0.0000 Cl  0  0  0  0  0  0  0  0  0  0  0  0
   -0.7500   -3.8971    0.0000 C   0  0  0  0  0  0  0  0  0  0  0  0
   -0.0000   -2.5981    0.0000 C   0  0  0  0  0  0  0  0  0  0  0  0
    2.2500    1.2990    0.0000 C   0  0  0  0  0  0  0  0  0  0  0  0
    3.7500    1.2990    0.0000 C   0  0  0  0  0  0  0  0  0  0  0  0
  1  2  1  0
  2  3  2  0
  3  4  1  0
  4  5  2  0
  5  6  1  0
  6  7  1  0
  7  8  2  0
  8  9  1  0
  9 10  2  0
 10 11  1  0
 10 12  1  0
 12 13  2  0
  6 14  1  0
 14 15  2  0
 15 16  1  0
 16 17  2  0
 17 18  1  0
 17 19  1  0
 19 20  2  0
  5 21  1  0
 21 22  2  0
 22  2  1  0
 13  7  1  0
 20 14  1  0
M  END
>  <linear_selectivity>  (292) 
30

>  <denticity>  (292) 
1

>  <ligand_class>  (292) 
phosphine

$$$$
P(4-Cl-Ph)3_100C_dioxane
     RDKit          2D

 22 24  0  0  0  0  0  0  0  0999 V2000
    6.0000   -0.0000    0.0000 Cl  0  0  0  0  0  0  0  0  0  0  0  0
    4.5000   -0.0000    0.0000 C   0  0  0  0  0  0  0  0  0  0  0  0
    3.7500   -1.2990    0.0000 C   0  0  0  0  0  0  0  0  0  0  0  0
    2.2500   -1.2990    0.0000 C   0  0  0  0  0  0  0  0  0  0  0  0
    1.5000   -0.0000    0.0000 C   0  0  0  0  0  0  0  0  0  0  0  0
    0.0000   -0.0000    0.0000 P   0  0  0  0  0  0  0  0  0  0  0  0
   -0.7500    1.2990    0.0000 C   0  0  0  0  0  0  0  0  0  0  0  0
    0.0000    2.5981    0.0000 C   0  0  0  0  0  0  0  0  0  0  0  0
   -0.7500    3.8971    0.0000 C   0  0  0  0  0  0  0  0  0  0  0  0
   -2.2500    3.8971    0.0000 C   0  0  0  0  0  0  0  0  0  0  0  0
   -3.0000    5.1962    0.0000 Cl  0  0  0  0  0  0  0  0  0  0  0  0
   -3.0000    2.5981    0.0000 C   0  0  0  0  0  0  0  0  0  0  0  0
   -2.2500    1.2990    0.0000 C   0  0  0  0  0  0  0  0  0  0  0  0
   -0.7500   -1.2990    0.0000 C   0  0  0  0  0  0  0  0  0  0  0  0
   -2.2500   -1.2990    0.0000 C   0  0  0  0  0  0  0  0  0  0  0  0
   -3.0000   -2.5981    0.0000 C   0  0  0  0  0  0  0  0  0  0  0  0
   -2.2500   -3.8971    0.0000 C   0  0  0  0  0  0  0  0  0  0  0  0
   -3.0000   -5.1962    0.0000 Cl  0  0  0  0  0  0  0  0  0  0  0  0
   -0.7500   -3.8971    0.0000 C   0  0  0  0  0  0  0  0  0  0  0  0
   -0.0000   -2.5981    0.0000 C   0  0  0  0  0  0  0  0  0  0  0  0
    2.2500    1.2990    0.0000 C   0  0  0  0  0  0  0  0  0  0  0  0
    3.7500    1.2990    0.0000 C   0  0  0  0  0  0  0  0  0  0  0  0
  1  2  1  0
  2  3  2  0
  3  4  1  0
  4  5  2  0
  5  6  1  0
  6  7  1  0
  7  8  2  0
  8  9  1  0
  9 10  2  0
 10 11  1  0
 10 12  1  0
 12 13  2  0
  6 14  1  0
 14 15  2  0
 15 16  1  0
 16 17  2  0
 17 18  1  0
 17 19  1  0
 19 20  2  0
  5 21  1  0
 21 22  2  0
 22  2  1  0
 13  7  1  0
 20 14  1  0
M  END
>  <linear_selectivity>  (293) 
32

>  <denticity>  (293) 
1

>  <ligand_class>  (293) 
phosphine

$$$$
P(4-Cl-Ph)3_100C_benzene
     RDKit          2D

 22 24  0  0  0  0  0  0  0  0999 V2000
    6.0000   -0.0000    0.0000 Cl  0  0  0  0  0  0  0  0  0  0  0  0
    4.5000   -0.0000    0.0000 C   0  0  0  0  0  0  0  0  0  0  0  0
    3.7500   -1.2990    0.0000 C   0  0  0  0  0  0  0  0  0  0  0  0
    2.2500   -1.2990    0.0000 C   0  0  0  0  0  0  0  0  0  0  0  0
    1.5000   -0.0000    0.0000 C   0  0  0  0  0  0  0  0  0  0  0  0
    0.0000   -0.0000    0.0000 P   0  0  0  0  0  0  0  0  0  0  0  0
   -0.7500    1.2990    0.0000 C   0  0  0  0  0  0  0  0  0  0  0  0
    0.0000    2.5981    0.0000 C   0  0  0  0  0  0  0  0  0  0  0  0
   -0.7500    3.8971    0.0000 C   0  0  0  0  0  0  0  0  0  0  0  0
   -2.2500    3.8971    0.0000 C   0  0  0  0  0  0  0  0  0  0  0  0
   -3.0000    5.1962    0.0000 Cl  0  0  0  0  0  0  0  0  0  0  0  0
   -3.0000    2.5981    0.0000 C   0  0  0  0  0  0  0  0  0  0  0  0
   -2.2500    1.2990    0.0000 C   0  0  0  0  0  0  0  0  0  0  0  0
   -0.7500   -1.2990    0.0000 C   0  0  0  0  0  0  0  0  0  0  0  0
   -2.2500   -1.2990    0.0000 C   0  0  0  0  0  0  0  0  0  0  0  0
   -3.0000   -2.5981    0.0000 C   0  0  0  0  0  0  0  0  0  0  0  0
   -2.2500   -3.8971    0.0000 C   0  0  0  0  0  0  0  0  0  0  0  0
   -3.0000   -5.1962    0.0000 Cl  0  0  0  0  0  0  0  0  0  0  0  0
   -0.7500   -3.8971    0.0000 C   0  0  0  0  0  0  0  0  0  0  0  0
   -0.0000   -2.5981    0.0000 C   0  0  0  0  0  0  0  0  0  0  0  0
    2.2500    1.2990    0.0000 C   0  0  0  0  0  0  0  0  0  0  0  0
    3.7500    1.2990    0.0000 C   0  0  0  0  0  0  0  0  0  0  0  0
  1  2  1  0
  2  3  2  0
  3  4  1  0
  4  5  2  0
  5  6  1  0
  6  7  1  0
  7  8  2  0
  8  9  1  0
  9 10  2  0
 10 11  1  0
 10 12  1  0
 12 13  2  0
  6 14  1  0
 14 15  2  0
 15 16  1  0
 16 17  2  0
 17 18  1  0
 17 19  1  0
 19 20  2  0
  5 21  1  0
 21 22  2  0
 22  2  1  0
 13  7  1  0
 20 14  1  0
M  END
>  <linear_selectivity>  (294) 
35

>  <denticity>  (294) 
1

>  <ligand_class>  (294) 
phosphine

$$$$
P(4-Cl-Ph)3_100C_xylene
     RDKit          2D

 22 24  0  0  0  0  0  0  0  0999 V2000
    6.0000   -0.0000    0.0000 Cl  0  0  0  0  0  0  0  0  0  0  0  0
    4.5000   -0.0000    0.0000 C   0  0  0  0  0  0  0  0  0  0  0  0
    3.7500   -1.2990    0.0000 C   0  0  0  0  0  0  0  0  0  0  0  0
    2.2500   -1.2990    0.0000 C   0  0  0  0  0  0  0  0  0  0  0  0
    1.5000   -0.0000    0.0000 C   0  0  0  0  0  0  0  0  0  0  0  0
    0.0000   -0.0000    0.0000 P   0  0  0  0  0  0  0  0  0  0  0  0
   -0.7500    1.2990    0.0000 C   0  0  0  0  0  0  0  0  0  0  0  0
    0.0000    2.5981    0.0000 C   0  0  0  0  0  0  0  0  0  0  0  0
   -0.7500    3.8971    0.0000 C   0  0  0  0  0  0  0  0  0  0  0  0
   -2.2500    3.8971    0.0000 C   0  0  0  0  0  0  0  0  0  0  0  0
   -3.0000    5.1962    0.0000 Cl  0  0  0  0  0  0  0  0  0  0  0  0
   -3.0000    2.5981    0.0000 C   0  0  0  0  0  0  0  0  0  0  0  0
   -2.2500    1.2990    0.0000 C   0  0  0  0  0  0  0  0  0  0  0  0
   -0.7500   -1.2990    0.0000 C   0  0  0  0  0  0  0  0  0  0  0  0
   -2.2500   -1.2990    0.0000 C   0  0  0  0  0  0  0  0  0  0  0  0
   -3.0000   -2.5981    0.0000 C   0  0  0  0  0  0  0  0  0  0  0  0
   -2.2500   -3.8971    0.0000 C   0  0  0  0  0  0  0  0  0  0  0  0
   -3.0000   -5.1962    0.0000 Cl  0  0  0  0  0  0  0  0  0  0  0  0
   -0.7500   -3.8971    0.0000 C   0  0  0  0  0  0  0  0  0  0  0  0
   -0.0000   -2.5981    0.0000 C   0  0  0  0  0  0  0  0  0  0  0  0
    2.2500    1.2990    0.0000 C   0  0  0  0  0  0  0  0  0  0  0  0
    3.7500    1.2990    0.0000 C   0  0  0  0  0  0  0  0  0  0  0  0
  1  2  1  0
  2  3  2  0
  3  4  1  0
  4  5  2  0
  5  6  1  0
  6  7  1  0
  7  8  2  0
  8  9  1  0
  9 10  2  0
 10 11  1  0
 10 12  1  0
 12 13  2  0
  6 14  1  0
 14 15  2  0
 15 16  1  0
 16 17  2  0
 17 18  1  0
 17 19  1  0
 19 20  2  0
  5 21  1  0
 21 22  2  0
 22  2  1  0
 13  7  1  0
 20 14  1  0
M  END
>  <linear_selectivity>  (295) 
29

>  <denticity>  (295) 
1

>  <ligand_class>  (295) 
phosphine

$$$$
P(4-Cl-Ph)3_110C_toluene
     RDKit          2D

 22 24  0  0  0  0  0  0  0  0999 V2000
    6.0000   -0.0000    0.0000 Cl  0  0  0  0  0  0  0  0  0  0  0  0
    4.5000   -0.0000    0.0000 C   0  0  0  0  0  0  0  0  0  0  0  0
    3.7500   -1.2990    0.0000 C   0  0  0  0  0  0  0  0  0  0  0  0
    2.2500   -1.2990    0.0000 C   0  0  0  0  0  0  0  0  0  0  0  0
    1.5000   -0.0000    0.0000 C   0  0  0  0  0  0  0  0  0  0  0  0
    0.0000   -0.0000    0.0000 P   0  0  0  0  0  0  0  0  0  0  0  0
   -0.7500    1.2990    0.0000 C   0  0  0  0  0  0  0  0  0  0  0  0
    0.0000    2.5981    0.0000 C   0  0  0  0  0  0  0  0  0  0  0  0
   -0.7500    3.8971    0.0000 C   0  0  0  0  0  0  0  0  0  0  0  0
   -2.2500    3.8971    0.0000 C   0  0  0  0  0  0  0  0  0  0  0  0
   -3.0000    5.1962    0.0000 Cl  0  0  0  0  0  0  0  0  0  0  0  0
   -3.0000    2.5981    0.0000 C   0  0  0  0  0  0  0  0  0  0  0  0
   -2.2500    1.2990    0.0000 C   0  0  0  0  0  0  0  0  0  0  0  0
   -0.7500   -1.2990    0.0000 C   0  0  0  0  0  0  0  0  0  0  0  0
   -2.2500   -1.2990    0.0000 C   0  0  0  0  0  0  0  0  0  0  0  0
   -3.0000   -2.5981    0.0000 C   0  0  0  0  0  0  0  0  0  0  0  0
   -2.2500   -3.8971    0.0000 C   0  0  0  0  0  0  0  0  0  0  0  0
   -3.0000   -5.1962    0.0000 Cl  0  0  0  0  0  0  0  0  0  0  0  0
   -0.7500   -3.8971    0.0000 C   0  0  0  0  0  0  0  0  0  0  0  0
   -0.0000   -2.5981    0.0000 C   0  0  0  0  0  0  0  0  0  0  0  0
    2.2500    1.2990    0.0000 C   0  0  0  0  0  0  0  0  0  0  0  0
    3.7500    1.2990    0.0000 C   0  0  0  0  0  0  0  0  0  0  0  0
  1  2  1  0
  2  3  2  0
  3  4  1  0
  4  5  2  0
  5  6  1  0
  6  7  1  0
  7  8  2  0
  8  9  1  0
  9 10  2  0
 10 11  1  0
 10 12  1  0
 12 13  2  0
  6 14  1  0
 14 15  2  0
 15 16  1  0
 16 17  2  0
 17 18  1  0
 17 19  1  0
 19 20  2  0
  5 21  1  0
 21 22  2  0
 22  2  1  0
 13  7  1  0
 20 14  1  0
M  END
>  <linear_selectivity>  (296) 
29

>  <denticity>  (296) 
1

>  <ligand_class>  (296) 
phosphine

$$$$
P(4-Cl-Ph)3_110C_THF
     RDKit          2D

 22 24  0  0  0  0  0  0  0  0999 V2000
    6.0000   -0.0000    0.0000 Cl  0  0  0  0  0  0  0  0  0  0  0  0
    4.5000   -0.0000    0.0000 C   0  0  0  0  0  0  0  0  0  0  0  0
    3.7500   -1.2990    0.0000 C   0  0  0  0  0  0  0  0  0  0  0  0
    2.2500   -1.2990    0.0000 C   0  0  0  0  0  0  0  0  0  0  0  0
    1.5000   -0.0000    0.0000 C   0  0  0  0  0  0  0  0  0  0  0  0
    0.0000   -0.0000    0.0000 P   0  0  0  0  0  0  0  0  0  0  0  0
   -0.7500    1.2990    0.0000 C   0  0  0  0  0  0  0  0  0  0  0  0
    0.0000    2.5981    0.0000 C   0  0  0  0  0  0  0  0  0  0  0  0
   -0.7500    3.8971    0.0000 C   0  0  0  0  0  0  0  0  0  0  0  0
   -2.2500    3.8971    0.0000 C   0  0  0  0  0  0  0  0  0  0  0  0
   -3.0000    5.1962    0.0000 Cl  0  0  0  0  0  0  0  0  0  0  0  0
   -3.0000    2.5981    0.0000 C   0  0  0  0  0  0  0  0  0  0  0  0
   -2.2500    1.2990    0.0000 C   0  0  0  0  0  0  0  0  0  0  0  0
   -0.7500   -1.2990    0.0000 C   0  0  0  0  0  0  0  0  0  0  0  0
   -2.2500   -1.2990    0.0000 C   0  0  0  0  0  0  0  0  0  0  0  0
   -3.0000   -2.5981    0.0000 C   0  0  0  0  0  0  0  0  0  0  0  0
   -2.2500   -3.8971    0.0000 C   0  0  0  0  0  0  0  0  0  0  0  0
   -3.0000   -5.1962    0.0000 Cl  0  0  0  0  0  0  0  0  0  0  0  0
   -0.7500   -3.8971    0.0000 C   0  0  0  0  0  0  0  0  0  0  0  0
   -0.0000   -2.5981    0.0000 C   0  0  0  0  0  0  0  0  0  0  0  0
    2.2500    1.2990    0.0000 C   0  0  0  0  0  0  0  0  0  0  0  0
    3.7500    1.2990    0.0000 C   0  0  0  0  0  0  0  0  0  0  0  0
  1  2  1  0
  2  3  2  0
  3  4  1  0
  4  5  2  0
  5  6  1  0
  6  7  1  0
  7  8  2  0
  8  9  1  0
  9 10  2  0
 10 11  1  0
 10 12  1  0
 12 13  2  0
  6 14  1  0
 14 15  2  0
 15 16  1  0
 16 17  2  0
 17 18  1  0
 17 19  1  0
 19 20  2  0
  5 21  1  0
 21 22  2  0
 22  2  1  0
 13  7  1  0
 20 14  1  0
M  END
>  <linear_selectivity>  (297) 
26

>  <denticity>  (297) 
1

>  <ligand_class>  (297) 
phosphine

$$$$
P(4-Cl-Ph)3_110C_benzene
     RDKit          2D

 22 24  0  0  0  0  0  0  0  0999 V2000
    6.0000   -0.0000    0.0000 Cl  0  0  0  0  0  0  0  0  0  0  0  0
    4.5000   -0.0000    0.0000 C   0  0  0  0  0  0  0  0  0  0  0  0
    3.7500   -1.2990    0.0000 C   0  0  0  0  0  0  0  0  0  0  0  0
    2.2500   -1.2990    0.0000 C   0  0  0  0  0  0  0  0  0  0  0  0
    1.5000   -0.0000    0.0000 C   0  0  0  0  0  0  0  0  0  0  0  0
    0.0000   -0.0000    0.0000 P   0  0  0  0  0  0  0  0  0  0  0  0
   -0.7500    1.2990    0.0000 C   0  0  0  0  0  0  0  0  0  0  0  0
    0.0000    2.5981    0.0000 C   0  0  0  0  0  0  0  0  0  0  0  0
   -0.7500    3.8971    0.0000 C   0  0  0  0  0  0  0  0  0  0  0  0
   -2.2500    3.8971    0.0000 C   0  0  0  0  0  0  0  0  0  0  0  0
   -3.0000    5.1962    0.0000 Cl  0  0  0  0  0  0  0  0  0  0  0  0
   -3.0000    2.5981    0.0000 C   0  0  0  0  0  0  0  0  0  0  0  0
   -2.2500    1.2990    0.0000 C   0  0  0  0  0  0  0  0  0  0  0  0
   -0.7500   -1.2990    0.0000 C   0  0  0  0  0  0  0  0  0  0  0  0
   -2.2500   -1.2990    0.0000 C   0  0  0  0  0  0  0  0  0  0  0  0
   -3.0000   -2.5981    0.0000 C   0  0  0  0  0  0  0  0  0  0  0  0
   -2.2500   -3.8971    0.0000 C   0  0  0  0  0  0  0  0  0  0  0  0
   -3.0000   -5.1962    0.0000 Cl  0  0  0  0  0  0  0  0  0  0  0  0
   -0.7500   -3.8971    0.0000 C   0  0  0  0  0  0  0  0  0  0  0  0
   -0.0000   -2.5981    0.0000 C   0  0  0  0  0  0  0  0  0  0  0  0
    2.2500    1.2990    0.0000 C   0  0  0  0  0  0  0  0  0  0  0  0
    3.7500    1.2990    0.0000 C   0  0  0  0  0  0  0  0  0  0  0  0
  1  2  1  0
  2  3  2  0
  3  4  1  0
  4  5  2  0
  5  6  1  0
  6  7  1  0
  7  8  2  0
  8  9  1  0
  9 10  2  0
 10 11  1  0
 10 12  1  0
 12 13  2  0
  6 14  1  0
 14 15  2  0
 15 16  1  0
 16 17  2  0
 17 18  1  0
 17 19  1  0
 19 20  2  0
  5 21  1  0
 21 22  2  0
 22  2  1  0
 13  7  1  0
 20 14  1  0
M  END
>  <linear_selectivity>  (298) 
33

>  <denticity>  (298) 
1

>  <ligand_class>  (298) 
phosphine

$$$$
P(4-Cl-Ph)3_120C_toluene
     RDKit          2D

 22 24  0  0  0  0  0  0  0  0999 V2000
    6.0000   -0.0000    0.0000 Cl  0  0  0  0  0  0  0  0  0  0  0  0
    4.5000   -0.0000    0.0000 C   0  0  0  0  0  0  0  0  0  0  0  0
    3.7500   -1.2990    0.0000 C   0  0  0  0  0  0  0  0  0  0  0  0
    2.2500   -1.2990    0.0000 C   0  0  0  0  0  0  0  0  0  0  0  0
    1.5000   -0.0000    0.0000 C   0  0  0  0  0  0  0  0  0  0  0  0
    0.0000   -0.0000    0.0000 P   0  0  0  0  0  0  0  0  0  0  0  0
   -0.7500    1.2990    0.0000 C   0  0  0  0  0  0  0  0  0  0  0  0
    0.0000    2.5981    0.0000 C   0  0  0  0  0  0  0  0  0  0  0  0
   -0.7500    3.8971    0.0000 C   0  0  0  0  0  0  0  0  0  0  0  0
   -2.2500    3.8971    0.0000 C   0  0  0  0  0  0  0  0  0  0  0  0
   -3.0000    5.1962    0.0000 Cl  0  0  0  0  0  0  0  0  0  0  0  0
   -3.0000    2.5981    0.0000 C   0  0  0  0  0  0  0  0  0  0  0  0
   -2.2500    1.2990    0.0000 C   0  0  0  0  0  0  0  0  0  0  0  0
   -0.7500   -1.2990    0.0000 C   0  0  0  0  0  0  0  0  0  0  0  0
   -2.2500   -1.2990    0.0000 C   0  0  0  0  0  0  0  0  0  0  0  0
   -3.0000   -2.5981    0.0000 C   0  0  0  0  0  0  0  0  0  0  0  0
   -2.2500   -3.8971    0.0000 C   0  0  0  0  0  0  0  0  0  0  0  0
   -3.0000   -5.1962    0.0000 Cl  0  0  0  0  0  0  0  0  0  0  0  0
   -0.7500   -3.8971    0.0000 C   0  0  0  0  0  0  0  0  0  0  0  0
   -0.0000   -2.5981    0.0000 C   0  0  0  0  0  0  0  0  0  0  0  0
    2.2500    1.2990    0.0000 C   0  0  0  0  0  0  0  0  0  0  0  0
    3.7500    1.2990    0.0000 C   0  0  0  0  0  0  0  0  0  0  0  0
  1  2  1  0
  2  3  2  0
  3  4  1  0
  4  5  2  0
  5  6  1  0
  6  7  1  0
  7  8  2  0
  8  9  1  0
  9 10  2  0
 10 11  1  0
 10 12  1  0
 12 13  2  0
  6 14  1  0
 14 15  2  0
 15 16  1  0
 16 17  2  0
 17 18  1  0
 17 19  1  0
 19 20  2  0
  5 21  1  0
 21 22  2  0
 22  2  1  0
 13  7  1  0
 20 14  1  0
M  END
>  <linear_selectivity>  (299) 
31

>  <denticity>  (299) 
1

>  <ligand_class>  (299) 
phosphine

$$$$
P(4-Cl-Ph)3_120C_dioxane
     RDKit          2D

 22 24  0  0  0  0  0  0  0  0999 V2000
    6.0000   -0.0000    0.0000 Cl  0  0  0  0  0  0  0  0  0  0  0  0
    4.5000   -0.0000    0.0000 C   0  0  0  0  0  0  0  0  0  0  0  0
    3.7500   -1.2990    0.0000 C   0  0  0  0  0  0  0  0  0  0  0  0
    2.2500   -1.2990    0.0000 C   0  0  0  0  0  0  0  0  0  0  0  0
    1.5000   -0.0000    0.0000 C   0  0  0  0  0  0  0  0  0  0  0  0
    0.0000   -0.0000    0.0000 P   0  0  0  0  0  0  0  0  0  0  0  0
   -0.7500    1.2990    0.0000 C   0  0  0  0  0  0  0  0  0  0  0  0
    0.0000    2.5981    0.0000 C   0  0  0  0  0  0  0  0  0  0  0  0
   -0.7500    3.8971    0.0000 C   0  0  0  0  0  0  0  0  0  0  0  0
   -2.2500    3.8971    0.0000 C   0  0  0  0  0  0  0  0  0  0  0  0
   -3.0000    5.1962    0.0000 Cl  0  0  0  0  0  0  0  0  0  0  0  0
   -3.0000    2.5981    0.0000 C   0  0  0  0  0  0  0  0  0  0  0  0
   -2.2500    1.2990    0.0000 C   0  0  0  0  0  0  0  0  0  0  0  0
   -0.7500   -1.2990    0.0000 C   0  0  0  0  0  0  0  0  0  0  0  0
   -2.2500   -1.2990    0.0000 C   0  0  0  0  0  0  0  0  0  0  0  0
   -3.0000   -2.5981    0.0000 C   0  0  0  0  0  0  0  0  0  0  0  0
   -2.2500   -3.8971    0.0000 C   0  0  0  0  0  0  0  0  0  0  0  0
   -3.0000   -5.1962    0.0000 Cl  0  0  0  0  0  0  0  0  0  0  0  0
   -0.7500   -3.8971    0.0000 C   0  0  0  0  0  0  0  0  0  0  0  0
   -0.0000   -2.5981    0.0000 C   0  0  0  0  0  0  0  0  0  0  0  0
    2.2500    1.2990    0.0000 C   0  0  0  0  0  0  0  0  0  0  0  0
    3.7500    1.2990    0.0000 C   0  0  0  0  0  0  0  0  0  0  0  0
  1  2  1  0
  2  3  2  0
  3  4  1  0
  4  5  2  0
  5  6  1  0
  6  7  1  0
  7  8  2  0
  8  9  1  0
  9 10  2  0
 10 11  1  0
 10 12  1  0
 12 13  2  0
  6 14  1  0
 14 15  2  0
 15 16  1  0
 16 17  2  0
 17 18  1  0
 17 19  1  0
 19 20  2  0
  5 21  1  0
 21 22  2  0
 22  2  1  0
 13  7  1  0
 20 14  1  0
M  END
>  <linear_selectivity>  (300) 
29

>  <denticity>  (300) 
1

>  <ligand_class>  (300) 
phosphine

$$$$
P(4-Cl-Ph)3_120C_hexane
     RDKit          2D

 22 24  0  0  0  0  0  0  0  0999 V2000
    6.0000   -0.0000    0.0000 Cl  0  0  0  0  0  0  0  0  0  0  0  0
    4.5000   -0.0000    0.0000 C   0  0  0  0  0  0  0  0  0  0  0  0
    3.7500   -1.2990    0.0000 C   0  0  0  0  0  0  0  0  0  0  0  0
    2.2500   -1.2990    0.0000 C   0  0  0  0  0  0  0  0  0  0  0  0
    1.5000   -0.0000    0.0000 C   0  0  0  0  0  0  0  0  0  0  0  0
    0.0000   -0.0000    0.0000 P   0  0  0  0  0  0  0  0  0  0  0  0
   -0.7500    1.2990    0.0000 C   0  0  0  0  0  0  0  0  0  0  0  0
    0.0000    2.5981    0.0000 C   0  0  0  0  0  0  0  0  0  0  0  0
   -0.7500    3.8971    0.0000 C   0  0  0  0  0  0  0  0  0  0  0  0
   -2.2500    3.8971    0.0000 C   0  0  0  0  0  0  0  0  0  0  0  0
   -3.0000    5.1962    0.0000 Cl  0  0  0  0  0  0  0  0  0  0  0  0
   -3.0000    2.5981    0.0000 C   0  0  0  0  0  0  0  0  0  0  0  0
   -2.2500    1.2990    0.0000 C   0  0  0  0  0  0  0  0  0  0  0  0
   -0.7500   -1.2990    0.0000 C   0  0  0  0  0  0  0  0  0  0  0  0
   -2.2500   -1.2990    0.0000 C   0  0  0  0  0  0  0  0  0  0  0  0
   -3.0000   -2.5981    0.0000 C   0  0  0  0  0  0  0  0  0  0  0  0
   -2.2500   -3.8971    0.0000 C   0  0  0  0  0  0  0  0  0  0  0  0
   -3.0000   -5.1962    0.0000 Cl  0  0  0  0  0  0  0  0  0  0  0  0
   -0.7500   -3.8971    0.0000 C   0  0  0  0  0  0  0  0  0  0  0  0
   -0.0000   -2.5981    0.0000 C   0  0  0  0  0  0  0  0  0  0  0  0
    2.2500    1.2990    0.0000 C   0  0  0  0  0  0  0  0  0  0  0  0
    3.7500    1.2990    0.0000 C   0  0  0  0  0  0  0  0  0  0  0  0
  1  2  1  0
  2  3  2  0
  3  4  1  0
  4  5  2  0
  5  6  1  0
  6  7  1  0
  7  8  2  0
  8  9  1  0
  9 10  2  0
 10 11  1  0
 10 12  1  0
 12 13  2  0
  6 14  1  0
 14 15  2  0
 15 16  1  0
 16 17  2  0
 17 18  1  0
 17 19  1  0
 19 20  2  0
  5 21  1  0
 21 22  2  0
 22  2  1  0
 13  7  1  0
 20 14  1  0
M  END
>  <linear_selectivity>  (301) 
29

>  <denticity>  (301) 
1

>  <ligand_class>  (301) 
phosphine

$$$$
P(4-Cl-Ph)3_120C_benzene
     RDKit          2D

 22 24  0  0  0  0  0  0  0  0999 V2000
    6.0000   -0.0000    0.0000 Cl  0  0  0  0  0  0  0  0  0  0  0  0
    4.5000   -0.0000    0.0000 C   0  0  0  0  0  0  0  0  0  0  0  0
    3.7500   -1.2990    0.0000 C   0  0  0  0  0  0  0  0  0  0  0  0
    2.2500   -1.2990    0.0000 C   0  0  0  0  0  0  0  0  0  0  0  0
    1.5000   -0.0000    0.0000 C   0  0  0  0  0  0  0  0  0  0  0  0
    0.0000   -0.0000    0.0000 P   0  0  0  0  0  0  0  0  0  0  0  0
   -0.7500    1.2990    0.0000 C   0  0  0  0  0  0  0  0  0  0  0  0
    0.0000    2.5981    0.0000 C   0  0  0  0  0  0  0  0  0  0  0  0
   -0.7500    3.8971    0.0000 C   0  0  0  0  0  0  0  0  0  0  0  0
   -2.2500    3.8971    0.0000 C   0  0  0  0  0  0  0  0  0  0  0  0
   -3.0000    5.1962    0.0000 Cl  0  0  0  0  0  0  0  0  0  0  0  0
   -3.0000    2.5981    0.0000 C   0  0  0  0  0  0  0  0  0  0  0  0
   -2.2500    1.2990    0.0000 C   0  0  0  0  0  0  0  0  0  0  0  0
   -0.7500   -1.2990    0.0000 C   0  0  0  0  0  0  0  0  0  0  0  0
   -2.2500   -1.2990    0.0000 C   0  0  0  0  0  0  0  0  0  0  0  0
   -3.0000   -2.5981    0.0000 C   0  0  0  0  0  0  0  0  0  0  0  0
   -2.2500   -3.8971    0.0000 C   0  0  0  0  0  0  0  0  0  0  0  0
   -3.0000   -5.1962    0.0000 Cl  0  0  0  0  0  0  0  0  0  0  0  0
   -0.7500   -3.8971    0.0000 C   0  0  0  0  0  0  0  0  0  0  0  0
   -0.0000   -2.5981    0.0000 C   0  0  0  0  0  0  0  0  0  0  0  0
    2.2500    1.2990    0.0000 C   0  0  0  0  0  0  0  0  0  0  0  0
    3.7500    1.2990    0.0000 C   0  0  0  0  0  0  0  0  0  0  0  0
  1  2  1  0
  2  3  2  0
  3  4  1  0
  4  5  2  0
  5  6  1  0
  6  7  1  0
  7  8  2  0
  8  9  1  0
  9 10  2  0
 10 11  1  0
 10 12  1  0
 12 13  2  0
  6 14  1  0
 14 15  2  0
 15 16  1  0
 16 17  2  0
 17 18  1  0
 17 19  1  0
 19 20  2  0
  5 21  1  0
 21 22  2  0
 22  2  1  0
 13  7  1  0
 20 14  1  0
M  END
>  <linear_selectivity>  (302) 
29

>  <denticity>  (302) 
1

>  <ligand_class>  (302) 
phosphine

$$$$
P(4-Cl-Ph)3_120C_xylene
     RDKit          2D

 22 24  0  0  0  0  0  0  0  0999 V2000
    6.0000   -0.0000    0.0000 Cl  0  0  0  0  0  0  0  0  0  0  0  0
    4.5000   -0.0000    0.0000 C   0  0  0  0  0  0  0  0  0  0  0  0
    3.7500   -1.2990    0.0000 C   0  0  0  0  0  0  0  0  0  0  0  0
    2.2500   -1.2990    0.0000 C   0  0  0  0  0  0  0  0  0  0  0  0
    1.5000   -0.0000    0.0000 C   0  0  0  0  0  0  0  0  0  0  0  0
    0.0000   -0.0000    0.0000 P   0  0  0  0  0  0  0  0  0  0  0  0
   -0.7500    1.2990    0.0000 C   0  0  0  0  0  0  0  0  0  0  0  0
    0.0000    2.5981    0.0000 C   0  0  0  0  0  0  0  0  0  0  0  0
   -0.7500    3.8971    0.0000 C   0  0  0  0  0  0  0  0  0  0  0  0
   -2.2500    3.8971    0.0000 C   0  0  0  0  0  0  0  0  0  0  0  0
   -3.0000    5.1962    0.0000 Cl  0  0  0  0  0  0  0  0  0  0  0  0
   -3.0000    2.5981    0.0000 C   0  0  0  0  0  0  0  0  0  0  0  0
   -2.2500    1.2990    0.0000 C   0  0  0  0  0  0  0  0  0  0  0  0
   -0.7500   -1.2990    0.0000 C   0  0  0  0  0  0  0  0  0  0  0  0
   -2.2500   -1.2990    0.0000 C   0  0  0  0  0  0  0  0  0  0  0  0
   -3.0000   -2.5981    0.0000 C   0  0  0  0  0  0  0  0  0  0  0  0
   -2.2500   -3.8971    0.0000 C   0  0  0  0  0  0  0  0  0  0  0  0
   -3.0000   -5.1962    0.0000 Cl  0  0  0  0  0  0  0  0  0  0  0  0
   -0.7500   -3.8971    0.0000 C   0  0  0  0  0  0  0  0  0  0  0  0
   -0.0000   -2.5981    0.0000 C   0  0  0  0  0  0  0  0  0  0  0  0
    2.2500    1.2990    0.0000 C   0  0  0  0  0  0  0  0  0  0  0  0
    3.7500    1.2990    0.0000 C   0  0  0  0  0  0  0  0  0  0  0  0
  1  2  1  0
  2  3  2  0
  3  4  1  0
  4  5  2  0
  5  6  1  0
  6  7  1  0
  7  8  2  0
  8  9  1  0
  9 10  2  0
 10 11  1  0
 10 12  1  0
 12 13  2  0
  6 14  1  0
 14 15  2  0
 15 16  1  0
 16 17  2  0
 17 18  1  0
 17 19  1  0
 19 20  2  0
  5 21  1  0
 21 22  2  0
 22  2  1  0
 13  7  1  0
 20 14  1  0
M  END
>  <linear_selectivity>  (303) 
28

>  <denticity>  (303) 
1

>  <ligand_class>  (303) 
phosphine

$$$$
P(4-Cl-Ph)3_130C_toluene
     RDKit          2D

 22 24  0  0  0  0  0  0  0  0999 V2000
    6.0000   -0.0000    0.0000 Cl  0  0  0  0  0  0  0  0  0  0  0  0
    4.5000   -0.0000    0.0000 C   0  0  0  0  0  0  0  0  0  0  0  0
    3.7500   -1.2990    0.0000 C   0  0  0  0  0  0  0  0  0  0  0  0
    2.2500   -1.2990    0.0000 C   0  0  0  0  0  0  0  0  0  0  0  0
    1.5000   -0.0000    0.0000 C   0  0  0  0  0  0  0  0  0  0  0  0
    0.0000   -0.0000    0.0000 P   0  0  0  0  0  0  0  0  0  0  0  0
   -0.7500    1.2990    0.0000 C   0  0  0  0  0  0  0  0  0  0  0  0
    0.0000    2.5981    0.0000 C   0  0  0  0  0  0  0  0  0  0  0  0
   -0.7500    3.8971    0.0000 C   0  0  0  0  0  0  0  0  0  0  0  0
   -2.2500    3.8971    0.0000 C   0  0  0  0  0  0  0  0  0  0  0  0
   -3.0000    5.1962    0.0000 Cl  0  0  0  0  0  0  0  0  0  0  0  0
   -3.0000    2.5981    0.0000 C   0  0  0  0  0  0  0  0  0  0  0  0
   -2.2500    1.2990    0.0000 C   0  0  0  0  0  0  0  0  0  0  0  0
   -0.7500   -1.2990    0.0000 C   0  0  0  0  0  0  0  0  0  0  0  0
   -2.2500   -1.2990    0.0000 C   0  0  0  0  0  0  0  0  0  0  0  0
   -3.0000   -2.5981    0.0000 C   0  0  0  0  0  0  0  0  0  0  0  0
   -2.2500   -3.8971    0.0000 C   0  0  0  0  0  0  0  0  0  0  0  0
   -3.0000   -5.1962    0.0000 Cl  0  0  0  0  0  0  0  0  0  0  0  0
   -0.7500   -3.8971    0.0000 C   0  0  0  0  0  0  0  0  0  0  0  0
   -0.0000   -2.5981    0.0000 C   0  0  0  0  0  0  0  0  0  0  0  0
    2.2500    1.2990    0.0000 C   0  0  0  0  0  0  0  0  0  0  0  0
    3.7500    1.2990    0.0000 C   0  0  0  0  0  0  0  0  0  0  0  0
  1  2  1  0
  2  3  2  0
  3  4  1  0
  4  5  2  0
  5  6  1  0
  6  7  1  0
  7  8  2  0
  8  9  1  0
  9 10  2  0
 10 11  1  0
 10 12  1  0
 12 13  2  0
  6 14  1  0
 14 15  2  0
 15 16  1  0
 16 17  2  0
 17 18  1  0
 17 19  1  0
 19 20  2  0
  5 21  1  0
 21 22  2  0
 22  2  1  0
 13  7  1  0
 20 14  1  0
M  END
>  <linear_selectivity>  (304) 
26

>  <denticity>  (304) 
1

>  <ligand_class>  (304) 
phosphine

$$$$
P(4-Cl-Ph)3_130C_THF
     RDKit          2D

 22 24  0  0  0  0  0  0  0  0999 V2000
    6.0000   -0.0000    0.0000 Cl  0  0  0  0  0  0  0  0  0  0  0  0
    4.5000   -0.0000    0.0000 C   0  0  0  0  0  0  0  0  0  0  0  0
    3.7500   -1.2990    0.0000 C   0  0  0  0  0  0  0  0  0  0  0  0
    2.2500   -1.2990    0.0000 C   0  0  0  0  0  0  0  0  0  0  0  0
    1.5000   -0.0000    0.0000 C   0  0  0  0  0  0  0  0  0  0  0  0
    0.0000   -0.0000    0.0000 P   0  0  0  0  0  0  0  0  0  0  0  0
   -0.7500    1.2990    0.0000 C   0  0  0  0  0  0  0  0  0  0  0  0
    0.0000    2.5981    0.0000 C   0  0  0  0  0  0  0  0  0  0  0  0
   -0.7500    3.8971    0.0000 C   0  0  0  0  0  0  0  0  0  0  0  0
   -2.2500    3.8971    0.0000 C   0  0  0  0  0  0  0  0  0  0  0  0
   -3.0000    5.1962    0.0000 Cl  0  0  0  0  0  0  0  0  0  0  0  0
   -3.0000    2.5981    0.0000 C   0  0  0  0  0  0  0  0  0  0  0  0
   -2.2500    1.2990    0.0000 C   0  0  0  0  0  0  0  0  0  0  0  0
   -0.7500   -1.2990    0.0000 C   0  0  0  0  0  0  0  0  0  0  0  0
   -2.2500   -1.2990    0.0000 C   0  0  0  0  0  0  0  0  0  0  0  0
   -3.0000   -2.5981    0.0000 C   0  0  0  0  0  0  0  0  0  0  0  0
   -2.2500   -3.8971    0.0000 C   0  0  0  0  0  0  0  0  0  0  0  0
   -3.0000   -5.1962    0.0000 Cl  0  0  0  0  0  0  0  0  0  0  0  0
   -0.7500   -3.8971    0.0000 C   0  0  0  0  0  0  0  0  0  0  0  0
   -0.0000   -2.5981    0.0000 C   0  0  0  0  0  0  0  0  0  0  0  0
    2.2500    1.2990    0.0000 C   0  0  0  0  0  0  0  0  0  0  0  0
    3.7500    1.2990    0.0000 C   0  0  0  0  0  0  0  0  0  0  0  0
  1  2  1  0
  2  3  2  0
  3  4  1  0
  4  5  2  0
  5  6  1  0
  6  7  1  0
  7  8  2  0
  8  9  1  0
  9 10  2  0
 10 11  1  0
 10 12  1  0
 12 13  2  0
  6 14  1  0
 14 15  2  0
 15 16  1  0
 16 17  2  0
 17 18  1  0
 17 19  1  0
 19 20  2  0
  5 21  1  0
 21 22  2  0
 22  2  1  0
 13  7  1  0
 20 14  1  0
M  END
>  <linear_selectivity>  (305) 
27

>  <denticity>  (305) 
1

>  <ligand_class>  (305) 
phosphine

$$$$
P(4-Cl-Ph)3_130C_dioxane
     RDKit          2D

 22 24  0  0  0  0  0  0  0  0999 V2000
    6.0000   -0.0000    0.0000 Cl  0  0  0  0  0  0  0  0  0  0  0  0
    4.5000   -0.0000    0.0000 C   0  0  0  0  0  0  0  0  0  0  0  0
    3.7500   -1.2990    0.0000 C   0  0  0  0  0  0  0  0  0  0  0  0
    2.2500   -1.2990    0.0000 C   0  0  0  0  0  0  0  0  0  0  0  0
    1.5000   -0.0000    0.0000 C   0  0  0  0  0  0  0  0  0  0  0  0
    0.0000   -0.0000    0.0000 P   0  0  0  0  0  0  0  0  0  0  0  0
   -0.7500    1.2990    0.0000 C   0  0  0  0  0  0  0  0  0  0  0  0
    0.0000    2.5981    0.0000 C   0  0  0  0  0  0  0  0  0  0  0  0
   -0.7500    3.8971    0.0000 C   0  0  0  0  0  0  0  0  0  0  0  0
   -2.2500    3.8971    0.0000 C   0  0  0  0  0  0  0  0  0  0  0  0
   -3.0000    5.1962    0.0000 Cl  0  0  0  0  0  0  0  0  0  0  0  0
   -3.0000    2.5981    0.0000 C   0  0  0  0  0  0  0  0  0  0  0  0
   -2.2500    1.2990    0.0000 C   0  0  0  0  0  0  0  0  0  0  0  0
   -0.7500   -1.2990    0.0000 C   0  0  0  0  0  0  0  0  0  0  0  0
   -2.2500   -1.2990    0.0000 C   0  0  0  0  0  0  0  0  0  0  0  0
   -3.0000   -2.5981    0.0000 C   0  0  0  0  0  0  0  0  0  0  0  0
   -2.2500   -3.8971    0.0000 C   0  0  0  0  0  0  0  0  0  0  0  0
   -3.0000   -5.1962    0.0000 Cl  0  0  0  0  0  0  0  0  0  0  0  0
   -0.7500   -3.8971    0.0000 C   0  0  0  0  0  0  0  0  0  0  0  0
   -0.0000   -2.5981    0.0000 C   0  0  0  0  0  0  0  0  0  0  0  0
    2.2500    1.2990    0.0000 C   0  0  0  0  0  0  0  0  0  0  0  0
    3.7500    1.2990    0.0000 C   0  0  0  0  0  0  0  0  0  0  0  0
  1  2  1  0
  2  3  2  0
  3  4  1  0
  4  5  2  0
  5  6  1  0
  6  7  1  0
  7  8  2  0
  8  9  1  0
  9 10  2  0
 10 11  1  0
 10 12  1  0
 12 13  2  0
  6 14  1  0
 14 15  2  0
 15 16  1  0
 16 17  2  0
 17 18  1  0
 17 19  1  0
 19 20  2  0
  5 21  1  0
 21 22  2  0
 22  2  1  0
 13  7  1  0
 20 14  1  0
M  END
>  <linear_selectivity>  (306) 
31

>  <denticity>  (306) 
1

>  <ligand_class>  (306) 
phosphine

$$$$
P(4-Cl-Ph)3_130C_xylene
     RDKit          2D

 22 24  0  0  0  0  0  0  0  0999 V2000
    6.0000   -0.0000    0.0000 Cl  0  0  0  0  0  0  0  0  0  0  0  0
    4.5000   -0.0000    0.0000 C   0  0  0  0  0  0  0  0  0  0  0  0
    3.7500   -1.2990    0.0000 C   0  0  0  0  0  0  0  0  0  0  0  0
    2.2500   -1.2990    0.0000 C   0  0  0  0  0  0  0  0  0  0  0  0
    1.5000   -0.0000    0.0000 C   0  0  0  0  0  0  0  0  0  0  0  0
    0.0000   -0.0000    0.0000 P   0  0  0  0  0  0  0  0  0  0  0  0
   -0.7500    1.2990    0.0000 C   0  0  0  0  0  0  0  0  0  0  0  0
    0.0000    2.5981    0.0000 C   0  0  0  0  0  0  0  0  0  0  0  0
   -0.7500    3.8971    0.0000 C   0  0  0  0  0  0  0  0  0  0  0  0
   -2.2500    3.8971    0.0000 C   0  0  0  0  0  0  0  0  0  0  0  0
   -3.0000    5.1962    0.0000 Cl  0  0  0  0  0  0  0  0  0  0  0  0
   -3.0000    2.5981    0.0000 C   0  0  0  0  0  0  0  0  0  0  0  0
   -2.2500    1.2990    0.0000 C   0  0  0  0  0  0  0  0  0  0  0  0
   -0.7500   -1.2990    0.0000 C   0  0  0  0  0  0  0  0  0  0  0  0
   -2.2500   -1.2990    0.0000 C   0  0  0  0  0  0  0  0  0  0  0  0
   -3.0000   -2.5981    0.0000 C   0  0  0  0  0  0  0  0  0  0  0  0
   -2.2500   -3.8971    0.0000 C   0  0  0  0  0  0  0  0  0  0  0  0
   -3.0000   -5.1962    0.0000 Cl  0  0  0  0  0  0  0  0  0  0  0  0
   -0.7500   -3.8971    0.0000 C   0  0  0  0  0  0  0  0  0  0  0  0
   -0.0000   -2.5981    0.0000 C   0  0  0  0  0  0  0  0  0  0  0  0
    2.2500    1.2990    0.0000 C   0  0  0  0  0  0  0  0  0  0  0  0
    3.7500    1.2990    0.0000 C   0  0  0  0  0  0  0  0  0  0  0  0
  1  2  1  0
  2  3  2  0
  3  4  1  0
  4  5  2  0
  5  6  1  0
  6  7  1  0
  7  8  2  0
  8  9  1  0
  9 10  2  0
 10 11  1  0
 10 12  1  0
 12 13  2  0
  6 14  1  0
 14 15  2  0
 15 16  1  0
 16 17  2  0
 17 18  1  0
 17 19  1  0
 19 20  2  0
  5 21  1  0
 21 22  2  0
 22  2  1  0
 13  7  1  0
 20 14  1  0
M  END
>  <linear_selectivity>  (307) 
31

>  <denticity>  (307) 
1

>  <ligand_class>  (307) 
phosphine

$$$$
P(4-F-Ph)3
     RDKit          2D

 22 24  0  0  0  0  0  0  0  0999 V2000
    6.0000   -0.0000    0.0000 F   0  0  0  0  0  0  0  0  0  0  0  0
    4.5000   -0.0000    0.0000 C   0  0  0  0  0  0  0  0  0  0  0  0
    3.7500   -1.2990    0.0000 C   0  0  0  0  0  0  0  0  0  0  0  0
    2.2500   -1.2990    0.0000 C   0  0  0  0  0  0  0  0  0  0  0  0
    1.5000   -0.0000    0.0000 C   0  0  0  0  0  0  0  0  0  0  0  0
    0.0000   -0.0000    0.0000 P   0  0  0  0  0  0  0  0  0  0  0  0
   -0.7500    1.2990    0.0000 C   0  0  0  0  0  0  0  0  0  0  0  0
    0.0000    2.5981    0.0000 C   0  0  0  0  0  0  0  0  0  0  0  0
   -0.7500    3.8971    0.0000 C   0  0  0  0  0  0  0  0  0  0  0  0
   -2.2500    3.8971    0.0000 C   0  0  0  0  0  0  0  0  0  0  0  0
   -3.0000    5.1962    0.0000 F   0  0  0  0  0  0  0  0  0  0  0  0
   -3.0000    2.5981    0.0000 C   0  0  0  0  0  0  0  0  0  0  0  0
   -2.2500    1.2990    0.0000 C   0  0  0  0  0  0  0  0  0  0  0  0
   -0.7500   -1.2990    0.0000 C   0  0  0  0  0  0  0  0  0  0  0  0
   -2.2500   -1.2990    0.0000 C   0  0  0  0  0  0  0  0  0  0  0  0
   -3.0000   -2.5981    0.0000 C   0  0  0  0  0  0  0  0  0  0  0  0
   -2.2500   -3.8971    0.0000 C   0  0  0  0  0  0  0  0  0  0  0  0
   -3.0000   -5.1962    0.0000 F   0  0  0  0  0  0  0  0  0  0  0  0
   -0.7500   -3.8971    0.0000 C   0  0  0  0  0  0  0  0  0  0  0  0
   -0.0000   -2.5981    0.0000 C   0  0  0  0  0  0  0  0  0  0  0  0
    2.2500    1.2990    0.0000 C   0  0  0  0  0  0  0  0  0  0  0  0
    3.7500    1.2990    0.0000 C   0  0  0  0  0  0  0  0  0  0  0  0
  1  2  1  0
  2  3  2  0
  3  4  1  0
  4  5  2  0
  5  6  1  0
  6  7  1  0
  7  8  2  0
  8  9  1  0
  9 10  2  0
 10 11  1  0
 10 12  1  0
 12 13  2  0
  6 14  1  0
 14 15  2  0
 15 16  1  0
 16 17  2  0
 17 18  1  0
 17 19  1  0
 19 20  2  0
  5 21  1  0
 21 22  2  0
 22  2  1  0
 13  7  1  0
 20 14  1  0
M  END
>  <linear_selectivity>  (308) 
33

>  <denticity>  (308) 
1

>  <ligand_class>  (308) 
phosphine

$$$$
P(4-F-Ph)3_70C_toluene
     RDKit          2D

 22 24  0  0  0  0  0  0  0  0999 V2000
    6.0000   -0.0000    0.0000 F   0  0  0  0  0  0  0  0  0  0  0  0
    4.5000   -0.0000    0.0000 C   0  0  0  0  0  0  0  0  0  0  0  0
    3.7500   -1.2990    0.0000 C   0  0  0  0  0  0  0  0  0  0  0  0
    2.2500   -1.2990    0.0000 C   0  0  0  0  0  0  0  0  0  0  0  0
    1.5000   -0.0000    0.0000 C   0  0  0  0  0  0  0  0  0  0  0  0
    0.0000   -0.0000    0.0000 P   0  0  0  0  0  0  0  0  0  0  0  0
   -0.7500    1.2990    0.0000 C   0  0  0  0  0  0  0  0  0  0  0  0
    0.0000    2.5981    0.0000 C   0  0  0  0  0  0  0  0  0  0  0  0
   -0.7500    3.8971    0.0000 C   0  0  0  0  0  0  0  0  0  0  0  0
   -2.2500    3.8971    0.0000 C   0  0  0  0  0  0  0  0  0  0  0  0
   -3.0000    5.1962    0.0000 F   0  0  0  0  0  0  0  0  0  0  0  0
   -3.0000    2.5981    0.0000 C   0  0  0  0  0  0  0  0  0  0  0  0
   -2.2500    1.2990    0.0000 C   0  0  0  0  0  0  0  0  0  0  0  0
   -0.7500   -1.2990    0.0000 C   0  0  0  0  0  0  0  0  0  0  0  0
   -2.2500   -1.2990    0.0000 C   0  0  0  0  0  0  0  0  0  0  0  0
   -3.0000   -2.5981    0.0000 C   0  0  0  0  0  0  0  0  0  0  0  0
   -2.2500   -3.8971    0.0000 C   0  0  0  0  0  0  0  0  0  0  0  0
   -3.0000   -5.1962    0.0000 F   0  0  0  0  0  0  0  0  0  0  0  0
   -0.7500   -3.8971    0.0000 C   0  0  0  0  0  0  0  0  0  0  0  0
   -0.0000   -2.5981    0.0000 C   0  0  0  0  0  0  0  0  0  0  0  0
    2.2500    1.2990    0.0000 C   0  0  0  0  0  0  0  0  0  0  0  0
    3.7500    1.2990    0.0000 C   0  0  0  0  0  0  0  0  0  0  0  0
  1  2  1  0
  2  3  2  0
  3  4  1  0
  4  5  2  0
  5  6  1  0
  6  7  1  0
  7  8  2  0
  8  9  1  0
  9 10  2  0
 10 11  1  0
 10 12  1  0
 12 13  2  0
  6 14  1  0
 14 15  2  0
 15 16  1  0
 16 17  2  0
 17 18  1  0
 17 19  1  0
 19 20  2  0
  5 21  1  0
 21 22  2  0
 22  2  1  0
 13  7  1  0
 20 14  1  0
M  END
>  <linear_selectivity>  (309) 
39

>  <denticity>  (309) 
1

>  <ligand_class>  (309) 
phosphine

$$$$
P(4-F-Ph)3_70C_THF
     RDKit          2D

 22 24  0  0  0  0  0  0  0  0999 V2000
    6.0000   -0.0000    0.0000 F   0  0  0  0  0  0  0  0  0  0  0  0
    4.5000   -0.0000    0.0000 C   0  0  0  0  0  0  0  0  0  0  0  0
    3.7500   -1.2990    0.0000 C   0  0  0  0  0  0  0  0  0  0  0  0
    2.2500   -1.2990    0.0000 C   0  0  0  0  0  0  0  0  0  0  0  0
    1.5000   -0.0000    0.0000 C   0  0  0  0  0  0  0  0  0  0  0  0
    0.0000   -0.0000    0.0000 P   0  0  0  0  0  0  0  0  0  0  0  0
   -0.7500    1.2990    0.0000 C   0  0  0  0  0  0  0  0  0  0  0  0
    0.0000    2.5981    0.0000 C   0  0  0  0  0  0  0  0  0  0  0  0
   -0.7500    3.8971    0.0000 C   0  0  0  0  0  0  0  0  0  0  0  0
   -2.2500    3.8971    0.0000 C   0  0  0  0  0  0  0  0  0  0  0  0
   -3.0000    5.1962    0.0000 F   0  0  0  0  0  0  0  0  0  0  0  0
   -3.0000    2.5981    0.0000 C   0  0  0  0  0  0  0  0  0  0  0  0
   -2.2500    1.2990    0.0000 C   0  0  0  0  0  0  0  0  0  0  0  0
   -0.7500   -1.2990    0.0000 C   0  0  0  0  0  0  0  0  0  0  0  0
   -2.2500   -1.2990    0.0000 C   0  0  0  0  0  0  0  0  0  0  0  0
   -3.0000   -2.5981    0.0000 C   0  0  0  0  0  0  0  0  0  0  0  0
   -2.2500   -3.8971    0.0000 C   0  0  0  0  0  0  0  0  0  0  0  0
   -3.0000   -5.1962    0.0000 F   0  0  0  0  0  0  0  0  0  0  0  0
   -0.7500   -3.8971    0.0000 C   0  0  0  0  0  0  0  0  0  0  0  0
   -0.0000   -2.5981    0.0000 C   0  0  0  0  0  0  0  0  0  0  0  0
    2.2500    1.2990    0.0000 C   0  0  0  0  0  0  0  0  0  0  0  0
    3.7500    1.2990    0.0000 C   0  0  0  0  0  0  0  0  0  0  0  0
  1  2  1  0
  2  3  2  0
  3  4  1  0
  4  5  2  0
  5  6  1  0
  6  7  1  0
  7  8  2  0
  8  9  1  0
  9 10  2  0
 10 11  1  0
 10 12  1  0
 12 13  2  0
  6 14  1  0
 14 15  2  0
 15 16  1  0
 16 17  2  0
 17 18  1  0
 17 19  1  0
 19 20  2  0
  5 21  1  0
 21 22  2  0
 22  2  1  0
 13  7  1  0
 20 14  1  0
M  END
>  <linear_selectivity>  (310) 
32

>  <denticity>  (310) 
1

>  <ligand_class>  (310) 
phosphine

$$$$
P(4-F-Ph)3_70C_dioxane
     RDKit          2D

 22 24  0  0  0  0  0  0  0  0999 V2000
    6.0000   -0.0000    0.0000 F   0  0  0  0  0  0  0  0  0  0  0  0
    4.5000   -0.0000    0.0000 C   0  0  0  0  0  0  0  0  0  0  0  0
    3.7500   -1.2990    0.0000 C   0  0  0  0  0  0  0  0  0  0  0  0
    2.2500   -1.2990    0.0000 C   0  0  0  0  0  0  0  0  0  0  0  0
    1.5000   -0.0000    0.0000 C   0  0  0  0  0  0  0  0  0  0  0  0
    0.0000   -0.0000    0.0000 P   0  0  0  0  0  0  0  0  0  0  0  0
   -0.7500    1.2990    0.0000 C   0  0  0  0  0  0  0  0  0  0  0  0
    0.0000    2.5981    0.0000 C   0  0  0  0  0  0  0  0  0  0  0  0
   -0.7500    3.8971    0.0000 C   0  0  0  0  0  0  0  0  0  0  0  0
   -2.2500    3.8971    0.0000 C   0  0  0  0  0  0  0  0  0  0  0  0
   -3.0000    5.1962    0.0000 F   0  0  0  0  0  0  0  0  0  0  0  0
   -3.0000    2.5981    0.0000 C   0  0  0  0  0  0  0  0  0  0  0  0
   -2.2500    1.2990    0.0000 C   0  0  0  0  0  0  0  0  0  0  0  0
   -0.7500   -1.2990    0.0000 C   0  0  0  0  0  0  0  0  0  0  0  0
   -2.2500   -1.2990    0.0000 C   0  0  0  0  0  0  0  0  0  0  0  0
   -3.0000   -2.5981    0.0000 C   0  0  0  0  0  0  0  0  0  0  0  0
   -2.2500   -3.8971    0.0000 C   0  0  0  0  0  0  0  0  0  0  0  0
   -3.0000   -5.1962    0.0000 F   0  0  0  0  0  0  0  0  0  0  0  0
   -0.7500   -3.8971    0.0000 C   0  0  0  0  0  0  0  0  0  0  0  0
   -0.0000   -2.5981    0.0000 C   0  0  0  0  0  0  0  0  0  0  0  0
    2.2500    1.2990    0.0000 C   0  0  0  0  0  0  0  0  0  0  0  0
    3.7500    1.2990    0.0000 C   0  0  0  0  0  0  0  0  0  0  0  0
  1  2  1  0
  2  3  2  0
  3  4  1  0
  4  5  2  0
  5  6  1  0
  6  7  1  0
  7  8  2  0
  8  9  1  0
  9 10  2  0
 10 11  1  0
 10 12  1  0
 12 13  2  0
  6 14  1  0
 14 15  2  0
 15 16  1  0
 16 17  2  0
 17 18  1  0
 17 19  1  0
 19 20  2  0
  5 21  1  0
 21 22  2  0
 22  2  1  0
 13  7  1  0
 20 14  1  0
M  END
>  <linear_selectivity>  (311) 
38

>  <denticity>  (311) 
1

>  <ligand_class>  (311) 
phosphine

$$$$
P(4-F-Ph)3_70C_benzene
     RDKit          2D

 22 24  0  0  0  0  0  0  0  0999 V2000
    6.0000   -0.0000    0.0000 F   0  0  0  0  0  0  0  0  0  0  0  0
    4.5000   -0.0000    0.0000 C   0  0  0  0  0  0  0  0  0  0  0  0
    3.7500   -1.2990    0.0000 C   0  0  0  0  0  0  0  0  0  0  0  0
    2.2500   -1.2990    0.0000 C   0  0  0  0  0  0  0  0  0  0  0  0
    1.5000   -0.0000    0.0000 C   0  0  0  0  0  0  0  0  0  0  0  0
    0.0000   -0.0000    0.0000 P   0  0  0  0  0  0  0  0  0  0  0  0
   -0.7500    1.2990    0.0000 C   0  0  0  0  0  0  0  0  0  0  0  0
    0.0000    2.5981    0.0000 C   0  0  0  0  0  0  0  0  0  0  0  0
   -0.7500    3.8971    0.0000 C   0  0  0  0  0  0  0  0  0  0  0  0
   -2.2500    3.8971    0.0000 C   0  0  0  0  0  0  0  0  0  0  0  0
   -3.0000    5.1962    0.0000 F   0  0  0  0  0  0  0  0  0  0  0  0
   -3.0000    2.5981    0.0000 C   0  0  0  0  0  0  0  0  0  0  0  0
   -2.2500    1.2990    0.0000 C   0  0  0  0  0  0  0  0  0  0  0  0
   -0.7500   -1.2990    0.0000 C   0  0  0  0  0  0  0  0  0  0  0  0
   -2.2500   -1.2990    0.0000 C   0  0  0  0  0  0  0  0  0  0  0  0
   -3.0000   -2.5981    0.0000 C   0  0  0  0  0  0  0  0  0  0  0  0
   -2.2500   -3.8971    0.0000 C   0  0  0  0  0  0  0  0  0  0  0  0
   -3.0000   -5.1962    0.0000 F   0  0  0  0  0  0  0  0  0  0  0  0
   -0.7500   -3.8971    0.0000 C   0  0  0  0  0  0  0  0  0  0  0  0
   -0.0000   -2.5981    0.0000 C   0  0  0  0  0  0  0  0  0  0  0  0
    2.2500    1.2990    0.0000 C   0  0  0  0  0  0  0  0  0  0  0  0
    3.7500    1.2990    0.0000 C   0  0  0  0  0  0  0  0  0  0  0  0
  1  2  1  0
  2  3  2  0
  3  4  1  0
  4  5  2  0
  5  6  1  0
  6  7  1  0
  7  8  2  0
  8  9  1  0
  9 10  2  0
 10 11  1  0
 10 12  1  0
 12 13  2  0
  6 14  1  0
 14 15  2  0
 15 16  1  0
 16 17  2  0
 17 18  1  0
 17 19  1  0
 19 20  2  0
  5 21  1  0
 21 22  2  0
 22  2  1  0
 13  7  1  0
 20 14  1  0
M  END
>  <linear_selectivity>  (312) 
38

>  <denticity>  (312) 
1

>  <ligand_class>  (312) 
phosphine

$$$$
P(4-F-Ph)3_70C_xylene
     RDKit          2D

 22 24  0  0  0  0  0  0  0  0999 V2000
    6.0000   -0.0000    0.0000 F   0  0  0  0  0  0  0  0  0  0  0  0
    4.5000   -0.0000    0.0000 C   0  0  0  0  0  0  0  0  0  0  0  0
    3.7500   -1.2990    0.0000 C   0  0  0  0  0  0  0  0  0  0  0  0
    2.2500   -1.2990    0.0000 C   0  0  0  0  0  0  0  0  0  0  0  0
    1.5000   -0.0000    0.0000 C   0  0  0  0  0  0  0  0  0  0  0  0
    0.0000   -0.0000    0.0000 P   0  0  0  0  0  0  0  0  0  0  0  0
   -0.7500    1.2990    0.0000 C   0  0  0  0  0  0  0  0  0  0  0  0
    0.0000    2.5981    0.0000 C   0  0  0  0  0  0  0  0  0  0  0  0
   -0.7500    3.8971    0.0000 C   0  0  0  0  0  0  0  0  0  0  0  0
   -2.2500    3.8971    0.0000 C   0  0  0  0  0  0  0  0  0  0  0  0
   -3.0000    5.1962    0.0000 F   0  0  0  0  0  0  0  0  0  0  0  0
   -3.0000    2.5981    0.0000 C   0  0  0  0  0  0  0  0  0  0  0  0
   -2.2500    1.2990    0.0000 C   0  0  0  0  0  0  0  0  0  0  0  0
   -0.7500   -1.2990    0.0000 C   0  0  0  0  0  0  0  0  0  0  0  0
   -2.2500   -1.2990    0.0000 C   0  0  0  0  0  0  0  0  0  0  0  0
   -3.0000   -2.5981    0.0000 C   0  0  0  0  0  0  0  0  0  0  0  0
   -2.2500   -3.8971    0.0000 C   0  0  0  0  0  0  0  0  0  0  0  0
   -3.0000   -5.1962    0.0000 F   0  0  0  0  0  0  0  0  0  0  0  0
   -0.7500   -3.8971    0.0000 C   0  0  0  0  0  0  0  0  0  0  0  0
   -0.0000   -2.5981    0.0000 C   0  0  0  0  0  0  0  0  0  0  0  0
    2.2500    1.2990    0.0000 C   0  0  0  0  0  0  0  0  0  0  0  0
    3.7500    1.2990    0.0000 C   0  0  0  0  0  0  0  0  0  0  0  0
  1  2  1  0
  2  3  2  0
  3  4  1  0
  4  5  2  0
  5  6  1  0
  6  7  1  0
  7  8  2  0
  8  9  1  0
  9 10  2  0
 10 11  1  0
 10 12  1  0
 12 13  2  0
  6 14  1  0
 14 15  2  0
 15 16  1  0
 16 17  2  0
 17 18  1  0
 17 19  1  0
 19 20  2  0
  5 21  1  0
 21 22  2  0
 22  2  1  0
 13  7  1  0
 20 14  1  0
M  END
>  <linear_selectivity>  (313) 
38

>  <denticity>  (313) 
1

>  <ligand_class>  (313) 
phosphine

$$$$
P(4-F-Ph)3_80C_toluene
     RDKit          2D

 22 24  0  0  0  0  0  0  0  0999 V2000
    6.0000   -0.0000    0.0000 F   0  0  0  0  0  0  0  0  0  0  0  0
    4.5000   -0.0000    0.0000 C   0  0  0  0  0  0  0  0  0  0  0  0
    3.7500   -1.2990    0.0000 C   0  0  0  0  0  0  0  0  0  0  0  0
    2.2500   -1.2990    0.0000 C   0  0  0  0  0  0  0  0  0  0  0  0
    1.5000   -0.0000    0.0000 C   0  0  0  0  0  0  0  0  0  0  0  0
    0.0000   -0.0000    0.0000 P   0  0  0  0  0  0  0  0  0  0  0  0
   -0.7500    1.2990    0.0000 C   0  0  0  0  0  0  0  0  0  0  0  0
    0.0000    2.5981    0.0000 C   0  0  0  0  0  0  0  0  0  0  0  0
   -0.7500    3.8971    0.0000 C   0  0  0  0  0  0  0  0  0  0  0  0
   -2.2500    3.8971    0.0000 C   0  0  0  0  0  0  0  0  0  0  0  0
   -3.0000    5.1962    0.0000 F   0  0  0  0  0  0  0  0  0  0  0  0
   -3.0000    2.5981    0.0000 C   0  0  0  0  0  0  0  0  0  0  0  0
   -2.2500    1.2990    0.0000 C   0  0  0  0  0  0  0  0  0  0  0  0
   -0.7500   -1.2990    0.0000 C   0  0  0  0  0  0  0  0  0  0  0  0
   -2.2500   -1.2990    0.0000 C   0  0  0  0  0  0  0  0  0  0  0  0
   -3.0000   -2.5981    0.0000 C   0  0  0  0  0  0  0  0  0  0  0  0
   -2.2500   -3.8971    0.0000 C   0  0  0  0  0  0  0  0  0  0  0  0
   -3.0000   -5.1962    0.0000 F   0  0  0  0  0  0  0  0  0  0  0  0
   -0.7500   -3.8971    0.0000 C   0  0  0  0  0  0  0  0  0  0  0  0
   -0.0000   -2.5981    0.0000 C   0  0  0  0  0  0  0  0  0  0  0  0
    2.2500    1.2990    0.0000 C   0  0  0  0  0  0  0  0  0  0  0  0
    3.7500    1.2990    0.0000 C   0  0  0  0  0  0  0  0  0  0  0  0
  1  2  1  0
  2  3  2  0
  3  4  1  0
  4  5  2  0
  5  6  1  0
  6  7  1  0
  7  8  2  0
  8  9  1  0
  9 10  2  0
 10 11  1  0
 10 12  1  0
 12 13  2  0
  6 14  1  0
 14 15  2  0
 15 16  1  0
 16 17  2  0
 17 18  1  0
 17 19  1  0
 19 20  2  0
  5 21  1  0
 21 22  2  0
 22  2  1  0
 13  7  1  0
 20 14  1  0
M  END
>  <linear_selectivity>  (314) 
33

>  <denticity>  (314) 
1

>  <ligand_class>  (314) 
phosphine

$$$$
P(4-F-Ph)3_80C_dioxane
     RDKit          2D

 22 24  0  0  0  0  0  0  0  0999 V2000
    6.0000   -0.0000    0.0000 F   0  0  0  0  0  0  0  0  0  0  0  0
    4.5000   -0.0000    0.0000 C   0  0  0  0  0  0  0  0  0  0  0  0
    3.7500   -1.2990    0.0000 C   0  0  0  0  0  0  0  0  0  0  0  0
    2.2500   -1.2990    0.0000 C   0  0  0  0  0  0  0  0  0  0  0  0
    1.5000   -0.0000    0.0000 C   0  0  0  0  0  0  0  0  0  0  0  0
    0.0000   -0.0000    0.0000 P   0  0  0  0  0  0  0  0  0  0  0  0
   -0.7500    1.2990    0.0000 C   0  0  0  0  0  0  0  0  0  0  0  0
    0.0000    2.5981    0.0000 C   0  0  0  0  0  0  0  0  0  0  0  0
   -0.7500    3.8971    0.0000 C   0  0  0  0  0  0  0  0  0  0  0  0
   -2.2500    3.8971    0.0000 C   0  0  0  0  0  0  0  0  0  0  0  0
   -3.0000    5.1962    0.0000 F   0  0  0  0  0  0  0  0  0  0  0  0
   -3.0000    2.5981    0.0000 C   0  0  0  0  0  0  0  0  0  0  0  0
   -2.2500    1.2990    0.0000 C   0  0  0  0  0  0  0  0  0  0  0  0
   -0.7500   -1.2990    0.0000 C   0  0  0  0  0  0  0  0  0  0  0  0
   -2.2500   -1.2990    0.0000 C   0  0  0  0  0  0  0  0  0  0  0  0
   -3.0000   -2.5981    0.0000 C   0  0  0  0  0  0  0  0  0  0  0  0
   -2.2500   -3.8971    0.0000 C   0  0  0  0  0  0  0  0  0  0  0  0
   -3.0000   -5.1962    0.0000 F   0  0  0  0  0  0  0  0  0  0  0  0
   -0.7500   -3.8971    0.0000 C   0  0  0  0  0  0  0  0  0  0  0  0
   -0.0000   -2.5981    0.0000 C   0  0  0  0  0  0  0  0  0  0  0  0
    2.2500    1.2990    0.0000 C   0  0  0  0  0  0  0  0  0  0  0  0
    3.7500    1.2990    0.0000 C   0  0  0  0  0  0  0  0  0  0  0  0
  1  2  1  0
  2  3  2  0
  3  4  1  0
  4  5  2  0
  5  6  1  0
  6  7  1  0
  7  8  2  0
  8  9  1  0
  9 10  2  0
 10 11  1  0
 10 12  1  0
 12 13  2  0
  6 14  1  0
 14 15  2  0
 15 16  1  0
 16 17  2  0
 17 18  1  0
 17 19  1  0
 19 20  2  0
  5 21  1  0
 21 22  2  0
 22  2  1  0
 13  7  1  0
 20 14  1  0
M  END
>  <linear_selectivity>  (315) 
30

>  <denticity>  (315) 
1

>  <ligand_class>  (315) 
phosphine

$$$$
P(4-F-Ph)3_80C_hexane
     RDKit          2D

 22 24  0  0  0  0  0  0  0  0999 V2000
    6.0000   -0.0000    0.0000 F   0  0  0  0  0  0  0  0  0  0  0  0
    4.5000   -0.0000    0.0000 C   0  0  0  0  0  0  0  0  0  0  0  0
    3.7500   -1.2990    0.0000 C   0  0  0  0  0  0  0  0  0  0  0  0
    2.2500   -1.2990    0.0000 C   0  0  0  0  0  0  0  0  0  0  0  0
    1.5000   -0.0000    0.0000 C   0  0  0  0  0  0  0  0  0  0  0  0
    0.0000   -0.0000    0.0000 P   0  0  0  0  0  0  0  0  0  0  0  0
   -0.7500    1.2990    0.0000 C   0  0  0  0  0  0  0  0  0  0  0  0
    0.0000    2.5981    0.0000 C   0  0  0  0  0  0  0  0  0  0  0  0
   -0.7500    3.8971    0.0000 C   0  0  0  0  0  0  0  0  0  0  0  0
   -2.2500    3.8971    0.0000 C   0  0  0  0  0  0  0  0  0  0  0  0
   -3.0000    5.1962    0.0000 F   0  0  0  0  0  0  0  0  0  0  0  0
   -3.0000    2.5981    0.0000 C   0  0  0  0  0  0  0  0  0  0  0  0
   -2.2500    1.2990    0.0000 C   0  0  0  0  0  0  0  0  0  0  0  0
   -0.7500   -1.2990    0.0000 C   0  0  0  0  0  0  0  0  0  0  0  0
   -2.2500   -1.2990    0.0000 C   0  0  0  0  0  0  0  0  0  0  0  0
   -3.0000   -2.5981    0.0000 C   0  0  0  0  0  0  0  0  0  0  0  0
   -2.2500   -3.8971    0.0000 C   0  0  0  0  0  0  0  0  0  0  0  0
   -3.0000   -5.1962    0.0000 F   0  0  0  0  0  0  0  0  0  0  0  0
   -0.7500   -3.8971    0.0000 C   0  0  0  0  0  0  0  0  0  0  0  0
   -0.0000   -2.5981    0.0000 C   0  0  0  0  0  0  0  0  0  0  0  0
    2.2500    1.2990    0.0000 C   0  0  0  0  0  0  0  0  0  0  0  0
    3.7500    1.2990    0.0000 C   0  0  0  0  0  0  0  0  0  0  0  0
  1  2  1  0
  2  3  2  0
  3  4  1  0
  4  5  2  0
  5  6  1  0
  6  7  1  0
  7  8  2  0
  8  9  1  0
  9 10  2  0
 10 11  1  0
 10 12  1  0
 12 13  2  0
  6 14  1  0
 14 15  2  0
 15 16  1  0
 16 17  2  0
 17 18  1  0
 17 19  1  0
 19 20  2  0
  5 21  1  0
 21 22  2  0
 22  2  1  0
 13  7  1  0
 20 14  1  0
M  END
>  <linear_selectivity>  (316) 
39

>  <denticity>  (316) 
1

>  <ligand_class>  (316) 
phosphine

$$$$
P(4-F-Ph)3_80C_benzene
     RDKit          2D

 22 24  0  0  0  0  0  0  0  0999 V2000
    6.0000   -0.0000    0.0000 F   0  0  0  0  0  0  0  0  0  0  0  0
    4.5000   -0.0000    0.0000 C   0  0  0  0  0  0  0  0  0  0  0  0
    3.7500   -1.2990    0.0000 C   0  0  0  0  0  0  0  0  0  0  0  0
    2.2500   -1.2990    0.0000 C   0  0  0  0  0  0  0  0  0  0  0  0
    1.5000   -0.0000    0.0000 C   0  0  0  0  0  0  0  0  0  0  0  0
    0.0000   -0.0000    0.0000 P   0  0  0  0  0  0  0  0  0  0  0  0
   -0.7500    1.2990    0.0000 C   0  0  0  0  0  0  0  0  0  0  0  0
    0.0000    2.5981    0.0000 C   0  0  0  0  0  0  0  0  0  0  0  0
   -0.7500    3.8971    0.0000 C   0  0  0  0  0  0  0  0  0  0  0  0
   -2.2500    3.8971    0.0000 C   0  0  0  0  0  0  0  0  0  0  0  0
   -3.0000    5.1962    0.0000 F   0  0  0  0  0  0  0  0  0  0  0  0
   -3.0000    2.5981    0.0000 C   0  0  0  0  0  0  0  0  0  0  0  0
   -2.2500    1.2990    0.0000 C   0  0  0  0  0  0  0  0  0  0  0  0
   -0.7500   -1.2990    0.0000 C   0  0  0  0  0  0  0  0  0  0  0  0
   -2.2500   -1.2990    0.0000 C   0  0  0  0  0  0  0  0  0  0  0  0
   -3.0000   -2.5981    0.0000 C   0  0  0  0  0  0  0  0  0  0  0  0
   -2.2500   -3.8971    0.0000 C   0  0  0  0  0  0  0  0  0  0  0  0
   -3.0000   -5.1962    0.0000 F   0  0  0  0  0  0  0  0  0  0  0  0
   -0.7500   -3.8971    0.0000 C   0  0  0  0  0  0  0  0  0  0  0  0
   -0.0000   -2.5981    0.0000 C   0  0  0  0  0  0  0  0  0  0  0  0
    2.2500    1.2990    0.0000 C   0  0  0  0  0  0  0  0  0  0  0  0
    3.7500    1.2990    0.0000 C   0  0  0  0  0  0  0  0  0  0  0  0
  1  2  1  0
  2  3  2  0
  3  4  1  0
  4  5  2  0
  5  6  1  0
  6  7  1  0
  7  8  2  0
  8  9  1  0
  9 10  2  0
 10 11  1  0
 10 12  1  0
 12 13  2  0
  6 14  1  0
 14 15  2  0
 15 16  1  0
 16 17  2  0
 17 18  1  0
 17 19  1  0
 19 20  2  0
  5 21  1  0
 21 22  2  0
 22  2  1  0
 13  7  1  0
 20 14  1  0
M  END
>  <linear_selectivity>  (317) 
36

>  <denticity>  (317) 
1

>  <ligand_class>  (317) 
phosphine

$$$$
P(4-F-Ph)3_90C_dioxane
     RDKit          2D

 22 24  0  0  0  0  0  0  0  0999 V2000
    6.0000   -0.0000    0.0000 F   0  0  0  0  0  0  0  0  0  0  0  0
    4.5000   -0.0000    0.0000 C   0  0  0  0  0  0  0  0  0  0  0  0
    3.7500   -1.2990    0.0000 C   0  0  0  0  0  0  0  0  0  0  0  0
    2.2500   -1.2990    0.0000 C   0  0  0  0  0  0  0  0  0  0  0  0
    1.5000   -0.0000    0.0000 C   0  0  0  0  0  0  0  0  0  0  0  0
    0.0000   -0.0000    0.0000 P   0  0  0  0  0  0  0  0  0  0  0  0
   -0.7500    1.2990    0.0000 C   0  0  0  0  0  0  0  0  0  0  0  0
    0.0000    2.5981    0.0000 C   0  0  0  0  0  0  0  0  0  0  0  0
   -0.7500    3.8971    0.0000 C   0  0  0  0  0  0  0  0  0  0  0  0
   -2.2500    3.8971    0.0000 C   0  0  0  0  0  0  0  0  0  0  0  0
   -3.0000    5.1962    0.0000 F   0  0  0  0  0  0  0  0  0  0  0  0
   -3.0000    2.5981    0.0000 C   0  0  0  0  0  0  0  0  0  0  0  0
   -2.2500    1.2990    0.0000 C   0  0  0  0  0  0  0  0  0  0  0  0
   -0.7500   -1.2990    0.0000 C   0  0  0  0  0  0  0  0  0  0  0  0
   -2.2500   -1.2990    0.0000 C   0  0  0  0  0  0  0  0  0  0  0  0
   -3.0000   -2.5981    0.0000 C   0  0  0  0  0  0  0  0  0  0  0  0
   -2.2500   -3.8971    0.0000 C   0  0  0  0  0  0  0  0  0  0  0  0
   -3.0000   -5.1962    0.0000 F   0  0  0  0  0  0  0  0  0  0  0  0
   -0.7500   -3.8971    0.0000 C   0  0  0  0  0  0  0  0  0  0  0  0
   -0.0000   -2.5981    0.0000 C   0  0  0  0  0  0  0  0  0  0  0  0
    2.2500    1.2990    0.0000 C   0  0  0  0  0  0  0  0  0  0  0  0
    3.7500    1.2990    0.0000 C   0  0  0  0  0  0  0  0  0  0  0  0
  1  2  1  0
  2  3  2  0
  3  4  1  0
  4  5  2  0
  5  6  1  0
  6  7  1  0
  7  8  2  0
  8  9  1  0
  9 10  2  0
 10 11  1  0
 10 12  1  0
 12 13  2  0
  6 14  1  0
 14 15  2  0
 15 16  1  0
 16 17  2  0
 17 18  1  0
 17 19  1  0
 19 20  2  0
  5 21  1  0
 21 22  2  0
 22  2  1  0
 13  7  1  0
 20 14  1  0
M  END
>  <linear_selectivity>  (318) 
32

>  <denticity>  (318) 
1

>  <ligand_class>  (318) 
phosphine

$$$$
P(4-F-Ph)3_90C_hexane
     RDKit          2D

 22 24  0  0  0  0  0  0  0  0999 V2000
    6.0000   -0.0000    0.0000 F   0  0  0  0  0  0  0  0  0  0  0  0
    4.5000   -0.0000    0.0000 C   0  0  0  0  0  0  0  0  0  0  0  0
    3.7500   -1.2990    0.0000 C   0  0  0  0  0  0  0  0  0  0  0  0
    2.2500   -1.2990    0.0000 C   0  0  0  0  0  0  0  0  0  0  0  0
    1.5000   -0.0000    0.0000 C   0  0  0  0  0  0  0  0  0  0  0  0
    0.0000   -0.0000    0.0000 P   0  0  0  0  0  0  0  0  0  0  0  0
   -0.7500    1.2990    0.0000 C   0  0  0  0  0  0  0  0  0  0  0  0
    0.0000    2.5981    0.0000 C   0  0  0  0  0  0  0  0  0  0  0  0
   -0.7500    3.8971    0.0000 C   0  0  0  0  0  0  0  0  0  0  0  0
   -2.2500    3.8971    0.0000 C   0  0  0  0  0  0  0  0  0  0  0  0
   -3.0000    5.1962    0.0000 F   0  0  0  0  0  0  0  0  0  0  0  0
   -3.0000    2.5981    0.0000 C   0  0  0  0  0  0  0  0  0  0  0  0
   -2.2500    1.2990    0.0000 C   0  0  0  0  0  0  0  0  0  0  0  0
   -0.7500   -1.2990    0.0000 C   0  0  0  0  0  0  0  0  0  0  0  0
   -2.2500   -1.2990    0.0000 C   0  0  0  0  0  0  0  0  0  0  0  0
   -3.0000   -2.5981    0.0000 C   0  0  0  0  0  0  0  0  0  0  0  0
   -2.2500   -3.8971    0.0000 C   0  0  0  0  0  0  0  0  0  0  0  0
   -3.0000   -5.1962    0.0000 F   0  0  0  0  0  0  0  0  0  0  0  0
   -0.7500   -3.8971    0.0000 C   0  0  0  0  0  0  0  0  0  0  0  0
   -0.0000   -2.5981    0.0000 C   0  0  0  0  0  0  0  0  0  0  0  0
    2.2500    1.2990    0.0000 C   0  0  0  0  0  0  0  0  0  0  0  0
    3.7500    1.2990    0.0000 C   0  0  0  0  0  0  0  0  0  0  0  0
  1  2  1  0
  2  3  2  0
  3  4  1  0
  4  5  2  0
  5  6  1  0
  6  7  1  0
  7  8  2  0
  8  9  1  0
  9 10  2  0
 10 11  1  0
 10 12  1  0
 12 13  2  0
  6 14  1  0
 14 15  2  0
 15 16  1  0
 16 17  2  0
 17 18  1  0
 17 19  1  0
 19 20  2  0
  5 21  1  0
 21 22  2  0
 22  2  1  0
 13  7  1  0
 20 14  1  0
M  END
>  <linear_selectivity>  (319) 
35

>  <denticity>  (319) 
1

>  <ligand_class>  (319) 
phosphine

$$$$
P(4-F-Ph)3_90C_benzene
     RDKit          2D

 22 24  0  0  0  0  0  0  0  0999 V2000
    6.0000   -0.0000    0.0000 F   0  0  0  0  0  0  0  0  0  0  0  0
    4.5000   -0.0000    0.0000 C   0  0  0  0  0  0  0  0  0  0  0  0
    3.7500   -1.2990    0.0000 C   0  0  0  0  0  0  0  0  0  0  0  0
    2.2500   -1.2990    0.0000 C   0  0  0  0  0  0  0  0  0  0  0  0
    1.5000   -0.0000    0.0000 C   0  0  0  0  0  0  0  0  0  0  0  0
    0.0000   -0.0000    0.0000 P   0  0  0  0  0  0  0  0  0  0  0  0
   -0.7500    1.2990    0.0000 C   0  0  0  0  0  0  0  0  0  0  0  0
    0.0000    2.5981    0.0000 C   0  0  0  0  0  0  0  0  0  0  0  0
   -0.7500    3.8971    0.0000 C   0  0  0  0  0  0  0  0  0  0  0  0
   -2.2500    3.8971    0.0000 C   0  0  0  0  0  0  0  0  0  0  0  0
   -3.0000    5.1962    0.0000 F   0  0  0  0  0  0  0  0  0  0  0  0
   -3.0000    2.5981    0.0000 C   0  0  0  0  0  0  0  0  0  0  0  0
   -2.2500    1.2990    0.0000 C   0  0  0  0  0  0  0  0  0  0  0  0
   -0.7500   -1.2990    0.0000 C   0  0  0  0  0  0  0  0  0  0  0  0
   -2.2500   -1.2990    0.0000 C   0  0  0  0  0  0  0  0  0  0  0  0
   -3.0000   -2.5981    0.0000 C   0  0  0  0  0  0  0  0  0  0  0  0
   -2.2500   -3.8971    0.0000 C   0  0  0  0  0  0  0  0  0  0  0  0
   -3.0000   -5.1962    0.0000 F   0  0  0  0  0  0  0  0  0  0  0  0
   -0.7500   -3.8971    0.0000 C   0  0  0  0  0  0  0  0  0  0  0  0
   -0.0000   -2.5981    0.0000 C   0  0  0  0  0  0  0  0  0  0  0  0
    2.2500    1.2990    0.0000 C   0  0  0  0  0  0  0  0  0  0  0  0
    3.7500    1.2990    0.0000 C   0  0  0  0  0  0  0  0  0  0  0  0
  1  2  1  0
  2  3  2  0
  3  4  1  0
  4  5  2  0
  5  6  1  0
  6  7  1  0
  7  8  2  0
  8  9  1  0
  9 10  2  0
 10 11  1  0
 10 12  1  0
 12 13  2  0
  6 14  1  0
 14 15  2  0
 15 16  1  0
 16 17  2  0
 17 18  1  0
 17 19  1  0
 19 20  2  0
  5 21  1  0
 21 22  2  0
 22  2  1  0
 13  7  1  0
 20 14  1  0
M  END
>  <linear_selectivity>  (320) 
35

>  <denticity>  (320) 
1

>  <ligand_class>  (320) 
phosphine

$$$$
P(4-F-Ph)3_100C_dioxane
     RDKit          2D

 22 24  0  0  0  0  0  0  0  0999 V2000
    6.0000   -0.0000    0.0000 F   0  0  0  0  0  0  0  0  0  0  0  0
    4.5000   -0.0000    0.0000 C   0  0  0  0  0  0  0  0  0  0  0  0
    3.7500   -1.2990    0.0000 C   0  0  0  0  0  0  0  0  0  0  0  0
    2.2500   -1.2990    0.0000 C   0  0  0  0  0  0  0  0  0  0  0  0
    1.5000   -0.0000    0.0000 C   0  0  0  0  0  0  0  0  0  0  0  0
    0.0000   -0.0000    0.0000 P   0  0  0  0  0  0  0  0  0  0  0  0
   -0.7500    1.2990    0.0000 C   0  0  0  0  0  0  0  0  0  0  0  0
    0.0000    2.5981    0.0000 C   0  0  0  0  0  0  0  0  0  0  0  0
   -0.7500    3.8971    0.0000 C   0  0  0  0  0  0  0  0  0  0  0  0
   -2.2500    3.8971    0.0000 C   0  0  0  0  0  0  0  0  0  0  0  0
   -3.0000    5.1962    0.0000 F   0  0  0  0  0  0  0  0  0  0  0  0
   -3.0000    2.5981    0.0000 C   0  0  0  0  0  0  0  0  0  0  0  0
   -2.2500    1.2990    0.0000 C   0  0  0  0  0  0  0  0  0  0  0  0
   -0.7500   -1.2990    0.0000 C   0  0  0  0  0  0  0  0  0  0  0  0
   -2.2500   -1.2990    0.0000 C   0  0  0  0  0  0  0  0  0  0  0  0
   -3.0000   -2.5981    0.0000 C   0  0  0  0  0  0  0  0  0  0  0  0
   -2.2500   -3.8971    0.0000 C   0  0  0  0  0  0  0  0  0  0  0  0
   -3.0000   -5.1962    0.0000 F   0  0  0  0  0  0  0  0  0  0  0  0
   -0.7500   -3.8971    0.0000 C   0  0  0  0  0  0  0  0  0  0  0  0
   -0.0000   -2.5981    0.0000 C   0  0  0  0  0  0  0  0  0  0  0  0
    2.2500    1.2990    0.0000 C   0  0  0  0  0  0  0  0  0  0  0  0
    3.7500    1.2990    0.0000 C   0  0  0  0  0  0  0  0  0  0  0  0
  1  2  1  0
  2  3  2  0
  3  4  1  0
  4  5  2  0
  5  6  1  0
  6  7  1  0
  7  8  2  0
  8  9  1  0
  9 10  2  0
 10 11  1  0
 10 12  1  0
 12 13  2  0
  6 14  1  0
 14 15  2  0
 15 16  1  0
 16 17  2  0
 17 18  1  0
 17 19  1  0
 19 20  2  0
  5 21  1  0
 21 22  2  0
 22  2  1  0
 13  7  1  0
 20 14  1  0
M  END
>  <linear_selectivity>  (321) 
29

>  <denticity>  (321) 
1

>  <ligand_class>  (321) 
phosphine

$$$$
P(4-F-Ph)3_100C_benzene
     RDKit          2D

 22 24  0  0  0  0  0  0  0  0999 V2000
    6.0000   -0.0000    0.0000 F   0  0  0  0  0  0  0  0  0  0  0  0
    4.5000   -0.0000    0.0000 C   0  0  0  0  0  0  0  0  0  0  0  0
    3.7500   -1.2990    0.0000 C   0  0  0  0  0  0  0  0  0  0  0  0
    2.2500   -1.2990    0.0000 C   0  0  0  0  0  0  0  0  0  0  0  0
    1.5000   -0.0000    0.0000 C   0  0  0  0  0  0  0  0  0  0  0  0
    0.0000   -0.0000    0.0000 P   0  0  0  0  0  0  0  0  0  0  0  0
   -0.7500    1.2990    0.0000 C   0  0  0  0  0  0  0  0  0  0  0  0
    0.0000    2.5981    0.0000 C   0  0  0  0  0  0  0  0  0  0  0  0
   -0.7500    3.8971    0.0000 C   0  0  0  0  0  0  0  0  0  0  0  0
   -2.2500    3.8971    0.0000 C   0  0  0  0  0  0  0  0  0  0  0  0
   -3.0000    5.1962    0.0000 F   0  0  0  0  0  0  0  0  0  0  0  0
   -3.0000    2.5981    0.0000 C   0  0  0  0  0  0  0  0  0  0  0  0
   -2.2500    1.2990    0.0000 C   0  0  0  0  0  0  0  0  0  0  0  0
   -0.7500   -1.2990    0.0000 C   0  0  0  0  0  0  0  0  0  0  0  0
   -2.2500   -1.2990    0.0000 C   0  0  0  0  0  0  0  0  0  0  0  0
   -3.0000   -2.5981    0.0000 C   0  0  0  0  0  0  0  0  0  0  0  0
   -2.2500   -3.8971    0.0000 C   0  0  0  0  0  0  0  0  0  0  0  0
   -3.0000   -5.1962    0.0000 F   0  0  0  0  0  0  0  0  0  0  0  0
   -0.7500   -3.8971    0.0000 C   0  0  0  0  0  0  0  0  0  0  0  0
   -0.0000   -2.5981    0.0000 C   0  0  0  0  0  0  0  0  0  0  0  0
    2.2500    1.2990    0.0000 C   0  0  0  0  0  0  0  0  0  0  0  0
    3.7500    1.2990    0.0000 C   0  0  0  0  0  0  0  0  0  0  0  0
  1  2  1  0
  2  3  2  0
  3  4  1  0
  4  5  2  0
  5  6  1  0
  6  7  1  0
  7  8  2  0
  8  9  1  0
  9 10  2  0
 10 11  1  0
 10 12  1  0
 12 13  2  0
  6 14  1  0
 14 15  2  0
 15 16  1  0
 16 17  2  0
 17 18  1  0
 17 19  1  0
 19 20  2  0
  5 21  1  0
 21 22  2  0
 22  2  1  0
 13  7  1  0
 20 14  1  0
M  END
>  <linear_selectivity>  (322) 
33

>  <denticity>  (322) 
1

>  <ligand_class>  (322) 
phosphine

$$$$
P(4-F-Ph)3_100C_xylene
     RDKit          2D

 22 24  0  0  0  0  0  0  0  0999 V2000
    6.0000   -0.0000    0.0000 F   0  0  0  0  0  0  0  0  0  0  0  0
    4.5000   -0.0000    0.0000 C   0  0  0  0  0  0  0  0  0  0  0  0
    3.7500   -1.2990    0.0000 C   0  0  0  0  0  0  0  0  0  0  0  0
    2.2500   -1.2990    0.0000 C   0  0  0  0  0  0  0  0  0  0  0  0
    1.5000   -0.0000    0.0000 C   0  0  0  0  0  0  0  0  0  0  0  0
    0.0000   -0.0000    0.0000 P   0  0  0  0  0  0  0  0  0  0  0  0
   -0.7500    1.2990    0.0000 C   0  0  0  0  0  0  0  0  0  0  0  0
    0.0000    2.5981    0.0000 C   0  0  0  0  0  0  0  0  0  0  0  0
   -0.7500    3.8971    0.0000 C   0  0  0  0  0  0  0  0  0  0  0  0
   -2.2500    3.8971    0.0000 C   0  0  0  0  0  0  0  0  0  0  0  0
   -3.0000    5.1962    0.0000 F   0  0  0  0  0  0  0  0  0  0  0  0
   -3.0000    2.5981    0.0000 C   0  0  0  0  0  0  0  0  0  0  0  0
   -2.2500    1.2990    0.0000 C   0  0  0  0  0  0  0  0  0  0  0  0
   -0.7500   -1.2990    0.0000 C   0  0  0  0  0  0  0  0  0  0  0  0
   -2.2500   -1.2990    0.0000 C   0  0  0  0  0  0  0  0  0  0  0  0
   -3.0000   -2.5981    0.0000 C   0  0  0  0  0  0  0  0  0  0  0  0
   -2.2500   -3.8971    0.0000 C   0  0  0  0  0  0  0  0  0  0  0  0
   -3.0000   -5.1962    0.0000 F   0  0  0  0  0  0  0  0  0  0  0  0
   -0.7500   -3.8971    0.0000 C   0  0  0  0  0  0  0  0  0  0  0  0
   -0.0000   -2.5981    0.0000 C   0  0  0  0  0  0  0  0  0  0  0  0
    2.2500    1.2990    0.0000 C   0  0  0  0  0  0  0  0  0  0  0  0
    3.7500    1.2990    0.0000 C   0  0  0  0  0  0  0  0  0  0  0  0
  1  2  1  0
  2  3  2  0
  3  4  1  0
  4  5  2  0
  5  6  1  0
  6  7  1  0
  7  8  2  0
  8  9  1  0
  9 10  2  0
 10 11  1  0
 10 12  1  0
 12 13  2  0
  6 14  1  0
 14 15  2  0
 15 16  1  0
 16 17  2  0
 17 18  1  0
 17 19  1  0
 19 20  2  0
  5 21  1  0
 21 22  2  0
 22  2  1  0
 13  7  1  0
 20 14  1  0
M  END
>  <linear_selectivity>  (323) 
34

>  <denticity>  (323) 
1

>  <ligand_class>  (323) 
phosphine

$$$$
P(4-F-Ph)3_110C_toluene
     RDKit          2D

 22 24  0  0  0  0  0  0  0  0999 V2000
    6.0000   -0.0000    0.0000 F   0  0  0  0  0  0  0  0  0  0  0  0
    4.5000   -0.0000    0.0000 C   0  0  0  0  0  0  0  0  0  0  0  0
    3.7500   -1.2990    0.0000 C   0  0  0  0  0  0  0  0  0  0  0  0
    2.2500   -1.2990    0.0000 C   0  0  0  0  0  0  0  0  0  0  0  0
    1.5000   -0.0000    0.0000 C   0  0  0  0  0  0  0  0  0  0  0  0
    0.0000   -0.0000    0.0000 P   0  0  0  0  0  0  0  0  0  0  0  0
   -0.7500    1.2990    0.0000 C   0  0  0  0  0  0  0  0  0  0  0  0
    0.0000    2.5981    0.0000 C   0  0  0  0  0  0  0  0  0  0  0  0
   -0.7500    3.8971    0.0000 C   0  0  0  0  0  0  0  0  0  0  0  0
   -2.2500    3.8971    0.0000 C   0  0  0  0  0  0  0  0  0  0  0  0
   -3.0000    5.1962    0.0000 F   0  0  0  0  0  0  0  0  0  0  0  0
   -3.0000    2.5981    0.0000 C   0  0  0  0  0  0  0  0  0  0  0  0
   -2.2500    1.2990    0.0000 C   0  0  0  0  0  0  0  0  0  0  0  0
   -0.7500   -1.2990    0.0000 C   0  0  0  0  0  0  0  0  0  0  0  0
   -2.2500   -1.2990    0.0000 C   0  0  0  0  0  0  0  0  0  0  0  0
   -3.0000   -2.5981    0.0000 C   0  0  0  0  0  0  0  0  0  0  0  0
   -2.2500   -3.8971    0.0000 C   0  0  0  0  0  0  0  0  0  0  0  0
   -3.0000   -5.1962    0.0000 F   0  0  0  0  0  0  0  0  0  0  0  0
   -0.7500   -3.8971    0.0000 C   0  0  0  0  0  0  0  0  0  0  0  0
   -0.0000   -2.5981    0.0000 C   0  0  0  0  0  0  0  0  0  0  0  0
    2.2500    1.2990    0.0000 C   0  0  0  0  0  0  0  0  0  0  0  0
    3.7500    1.2990    0.0000 C   0  0  0  0  0  0  0  0  0  0  0  0
  1  2  1  0
  2  3  2  0
  3  4  1  0
  4  5  2  0
  5  6  1  0
  6  7  1  0
  7  8  2  0
  8  9  1  0
  9 10  2  0
 10 11  1  0
 10 12  1  0
 12 13  2  0
  6 14  1  0
 14 15  2  0
 15 16  1  0
 16 17  2  0
 17 18  1  0
 17 19  1  0
 19 20  2  0
  5 21  1  0
 21 22  2  0
 22  2  1  0
 13  7  1  0
 20 14  1  0
M  END
>  <linear_selectivity>  (324) 
27

>  <denticity>  (324) 
1

>  <ligand_class>  (324) 
phosphine

$$$$
P(4-F-Ph)3_110C_THF
     RDKit          2D

 22 24  0  0  0  0  0  0  0  0999 V2000
    6.0000   -0.0000    0.0000 F   0  0  0  0  0  0  0  0  0  0  0  0
    4.5000   -0.0000    0.0000 C   0  0  0  0  0  0  0  0  0  0  0  0
    3.7500   -1.2990    0.0000 C   0  0  0  0  0  0  0  0  0  0  0  0
    2.2500   -1.2990    0.0000 C   0  0  0  0  0  0  0  0  0  0  0  0
    1.5000   -0.0000    0.0000 C   0  0  0  0  0  0  0  0  0  0  0  0
    0.0000   -0.0000    0.0000 P   0  0  0  0  0  0  0  0  0  0  0  0
   -0.7500    1.2990    0.0000 C   0  0  0  0  0  0  0  0  0  0  0  0
    0.0000    2.5981    0.0000 C   0  0  0  0  0  0  0  0  0  0  0  0
   -0.7500    3.8971    0.0000 C   0  0  0  0  0  0  0  0  0  0  0  0
   -2.2500    3.8971    0.0000 C   0  0  0  0  0  0  0  0  0  0  0  0
   -3.0000    5.1962    0.0000 F   0  0  0  0  0  0  0  0  0  0  0  0
   -3.0000    2.5981    0.0000 C   0  0  0  0  0  0  0  0  0  0  0  0
   -2.2500    1.2990    0.0000 C   0  0  0  0  0  0  0  0  0  0  0  0
   -0.7500   -1.2990    0.0000 C   0  0  0  0  0  0  0  0  0  0  0  0
   -2.2500   -1.2990    0.0000 C   0  0  0  0  0  0  0  0  0  0  0  0
   -3.0000   -2.5981    0.0000 C   0  0  0  0  0  0  0  0  0  0  0  0
   -2.2500   -3.8971    0.0000 C   0  0  0  0  0  0  0  0  0  0  0  0
   -3.0000   -5.1962    0.0000 F   0  0  0  0  0  0  0  0  0  0  0  0
   -0.7500   -3.8971    0.0000 C   0  0  0  0  0  0  0  0  0  0  0  0
   -0.0000   -2.5981    0.0000 C   0  0  0  0  0  0  0  0  0  0  0  0
    2.2500    1.2990    0.0000 C   0  0  0  0  0  0  0  0  0  0  0  0
    3.7500    1.2990    0.0000 C   0  0  0  0  0  0  0  0  0  0  0  0
  1  2  1  0
  2  3  2  0
  3  4  1  0
  4  5  2  0
  5  6  1  0
  6  7  1  0
  7  8  2  0
  8  9  1  0
  9 10  2  0
 10 11  1  0
 10 12  1  0
 12 13  2  0
  6 14  1  0
 14 15  2  0
 15 16  1  0
 16 17  2  0
 17 18  1  0
 17 19  1  0
 19 20  2  0
  5 21  1  0
 21 22  2  0
 22  2  1  0
 13  7  1  0
 20 14  1  0
M  END
>  <linear_selectivity>  (325) 
28

>  <denticity>  (325) 
1

>  <ligand_class>  (325) 
phosphine

$$$$
P(4-F-Ph)3_110C_dioxane
     RDKit          2D

 22 24  0  0  0  0  0  0  0  0999 V2000
    6.0000   -0.0000    0.0000 F   0  0  0  0  0  0  0  0  0  0  0  0
    4.5000   -0.0000    0.0000 C   0  0  0  0  0  0  0  0  0  0  0  0
    3.7500   -1.2990    0.0000 C   0  0  0  0  0  0  0  0  0  0  0  0
    2.2500   -1.2990    0.0000 C   0  0  0  0  0  0  0  0  0  0  0  0
    1.5000   -0.0000    0.0000 C   0  0  0  0  0  0  0  0  0  0  0  0
    0.0000   -0.0000    0.0000 P   0  0  0  0  0  0  0  0  0  0  0  0
   -0.7500    1.2990    0.0000 C   0  0  0  0  0  0  0  0  0  0  0  0
    0.0000    2.5981    0.0000 C   0  0  0  0  0  0  0  0  0  0  0  0
   -0.7500    3.8971    0.0000 C   0  0  0  0  0  0  0  0  0  0  0  0
   -2.2500    3.8971    0.0000 C   0  0  0  0  0  0  0  0  0  0  0  0
   -3.0000    5.1962    0.0000 F   0  0  0  0  0  0  0  0  0  0  0  0
   -3.0000    2.5981    0.0000 C   0  0  0  0  0  0  0  0  0  0  0  0
   -2.2500    1.2990    0.0000 C   0  0  0  0  0  0  0  0  0  0  0  0
   -0.7500   -1.2990    0.0000 C   0  0  0  0  0  0  0  0  0  0  0  0
   -2.2500   -1.2990    0.0000 C   0  0  0  0  0  0  0  0  0  0  0  0
   -3.0000   -2.5981    0.0000 C   0  0  0  0  0  0  0  0  0  0  0  0
   -2.2500   -3.8971    0.0000 C   0  0  0  0  0  0  0  0  0  0  0  0
   -3.0000   -5.1962    0.0000 F   0  0  0  0  0  0  0  0  0  0  0  0
   -0.7500   -3.8971    0.0000 C   0  0  0  0  0  0  0  0  0  0  0  0
   -0.0000   -2.5981    0.0000 C   0  0  0  0  0  0  0  0  0  0  0  0
    2.2500    1.2990    0.0000 C   0  0  0  0  0  0  0  0  0  0  0  0
    3.7500    1.2990    0.0000 C   0  0  0  0  0  0  0  0  0  0  0  0
  1  2  1  0
  2  3  2  0
  3  4  1  0
  4  5  2  0
  5  6  1  0
  6  7  1  0
  7  8  2  0
  8  9  1  0
  9 10  2  0
 10 11  1  0
 10 12  1  0
 12 13  2  0
  6 14  1  0
 14 15  2  0
 15 16  1  0
 16 17  2  0
 17 18  1  0
 17 19  1  0
 19 20  2  0
  5 21  1  0
 21 22  2  0
 22  2  1  0
 13  7  1  0
 20 14  1  0
M  END
>  <linear_selectivity>  (326) 
32

>  <denticity>  (326) 
1

>  <ligand_class>  (326) 
phosphine

$$$$
P(4-F-Ph)3_110C_hexane
     RDKit          2D

 22 24  0  0  0  0  0  0  0  0999 V2000
    6.0000   -0.0000    0.0000 F   0  0  0  0  0  0  0  0  0  0  0  0
    4.5000   -0.0000    0.0000 C   0  0  0  0  0  0  0  0  0  0  0  0
    3.7500   -1.2990    0.0000 C   0  0  0  0  0  0  0  0  0  0  0  0
    2.2500   -1.2990    0.0000 C   0  0  0  0  0  0  0  0  0  0  0  0
    1.5000   -0.0000    0.0000 C   0  0  0  0  0  0  0  0  0  0  0  0
    0.0000   -0.0000    0.0000 P   0  0  0  0  0  0  0  0  0  0  0  0
   -0.7500    1.2990    0.0000 C   0  0  0  0  0  0  0  0  0  0  0  0
    0.0000    2.5981    0.0000 C   0  0  0  0  0  0  0  0  0  0  0  0
   -0.7500    3.8971    0.0000 C   0  0  0  0  0  0  0  0  0  0  0  0
   -2.2500    3.8971    0.0000 C   0  0  0  0  0  0  0  0  0  0  0  0
   -3.0000    5.1962    0.0000 F   0  0  0  0  0  0  0  0  0  0  0  0
   -3.0000    2.5981    0.0000 C   0  0  0  0  0  0  0  0  0  0  0  0
   -2.2500    1.2990    0.0000 C   0  0  0  0  0  0  0  0  0  0  0  0
   -0.7500   -1.2990    0.0000 C   0  0  0  0  0  0  0  0  0  0  0  0
   -2.2500   -1.2990    0.0000 C   0  0  0  0  0  0  0  0  0  0  0  0
   -3.0000   -2.5981    0.0000 C   0  0  0  0  0  0  0  0  0  0  0  0
   -2.2500   -3.8971    0.0000 C   0  0  0  0  0  0  0  0  0  0  0  0
   -3.0000   -5.1962    0.0000 F   0  0  0  0  0  0  0  0  0  0  0  0
   -0.7500   -3.8971    0.0000 C   0  0  0  0  0  0  0  0  0  0  0  0
   -0.0000   -2.5981    0.0000 C   0  0  0  0  0  0  0  0  0  0  0  0
    2.2500    1.2990    0.0000 C   0  0  0  0  0  0  0  0  0  0  0  0
    3.7500    1.2990    0.0000 C   0  0  0  0  0  0  0  0  0  0  0  0
  1  2  1  0
  2  3  2  0
  3  4  1  0
  4  5  2  0
  5  6  1  0
  6  7  1  0
  7  8  2  0
  8  9  1  0
  9 10  2  0
 10 11  1  0
 10 12  1  0
 12 13  2  0
  6 14  1  0
 14 15  2  0
 15 16  1  0
 16 17  2  0
 17 18  1  0
 17 19  1  0
 19 20  2  0
  5 21  1  0
 21 22  2  0
 22  2  1  0
 13  7  1  0
 20 14  1  0
M  END
>  <linear_selectivity>  (327) 
32

>  <denticity>  (327) 
1

>  <ligand_class>  (327) 
phosphine

$$$$
P(4-F-Ph)3_110C_xylene
     RDKit          2D

 22 24  0  0  0  0  0  0  0  0999 V2000
    6.0000   -0.0000    0.0000 F   0  0  0  0  0  0  0  0  0  0  0  0
    4.5000   -0.0000    0.0000 C   0  0  0  0  0  0  0  0  0  0  0  0
    3.7500   -1.2990    0.0000 C   0  0  0  0  0  0  0  0  0  0  0  0
    2.2500   -1.2990    0.0000 C   0  0  0  0  0  0  0  0  0  0  0  0
    1.5000   -0.0000    0.0000 C   0  0  0  0  0  0  0  0  0  0  0  0
    0.0000   -0.0000    0.0000 P   0  0  0  0  0  0  0  0  0  0  0  0
   -0.7500    1.2990    0.0000 C   0  0  0  0  0  0  0  0  0  0  0  0
    0.0000    2.5981    0.0000 C   0  0  0  0  0  0  0  0  0  0  0  0
   -0.7500    3.8971    0.0000 C   0  0  0  0  0  0  0  0  0  0  0  0
   -2.2500    3.8971    0.0000 C   0  0  0  0  0  0  0  0  0  0  0  0
   -3.0000    5.1962    0.0000 F   0  0  0  0  0  0  0  0  0  0  0  0
   -3.0000    2.5981    0.0000 C   0  0  0  0  0  0  0  0  0  0  0  0
   -2.2500    1.2990    0.0000 C   0  0  0  0  0  0  0  0  0  0  0  0
   -0.7500   -1.2990    0.0000 C   0  0  0  0  0  0  0  0  0  0  0  0
   -2.2500   -1.2990    0.0000 C   0  0  0  0  0  0  0  0  0  0  0  0
   -3.0000   -2.5981    0.0000 C   0  0  0  0  0  0  0  0  0  0  0  0
   -2.2500   -3.8971    0.0000 C   0  0  0  0  0  0  0  0  0  0  0  0
   -3.0000   -5.1962    0.0000 F   0  0  0  0  0  0  0  0  0  0  0  0
   -0.7500   -3.8971    0.0000 C   0  0  0  0  0  0  0  0  0  0  0  0
   -0.0000   -2.5981    0.0000 C   0  0  0  0  0  0  0  0  0  0  0  0
    2.2500    1.2990    0.0000 C   0  0  0  0  0  0  0  0  0  0  0  0
    3.7500    1.2990    0.0000 C   0  0  0  0  0  0  0  0  0  0  0  0
  1  2  1  0
  2  3  2  0
  3  4  1  0
  4  5  2  0
  5  6  1  0
  6  7  1  0
  7  8  2  0
  8  9  1  0
  9 10  2  0
 10 11  1  0
 10 12  1  0
 12 13  2  0
  6 14  1  0
 14 15  2  0
 15 16  1  0
 16 17  2  0
 17 18  1  0
 17 19  1  0
 19 20  2  0
  5 21  1  0
 21 22  2  0
 22  2  1  0
 13  7  1  0
 20 14  1  0
M  END
>  <linear_selectivity>  (328) 
29

>  <denticity>  (328) 
1

>  <ligand_class>  (328) 
phosphine

$$$$
P(4-F-Ph)3_120C_THF
     RDKit          2D

 22 24  0  0  0  0  0  0  0  0999 V2000
    6.0000   -0.0000    0.0000 F   0  0  0  0  0  0  0  0  0  0  0  0
    4.5000   -0.0000    0.0000 C   0  0  0  0  0  0  0  0  0  0  0  0
    3.7500   -1.2990    0.0000 C   0  0  0  0  0  0  0  0  0  0  0  0
    2.2500   -1.2990    0.0000 C   0  0  0  0  0  0  0  0  0  0  0  0
    1.5000   -0.0000    0.0000 C   0  0  0  0  0  0  0  0  0  0  0  0
    0.0000   -0.0000    0.0000 P   0  0  0  0  0  0  0  0  0  0  0  0
   -0.7500    1.2990    0.0000 C   0  0  0  0  0  0  0  0  0  0  0  0
    0.0000    2.5981    0.0000 C   0  0  0  0  0  0  0  0  0  0  0  0
   -0.7500    3.8971    0.0000 C   0  0  0  0  0  0  0  0  0  0  0  0
   -2.2500    3.8971    0.0000 C   0  0  0  0  0  0  0  0  0  0  0  0
   -3.0000    5.1962    0.0000 F   0  0  0  0  0  0  0  0  0  0  0  0
   -3.0000    2.5981    0.0000 C   0  0  0  0  0  0  0  0  0  0  0  0
   -2.2500    1.2990    0.0000 C   0  0  0  0  0  0  0  0  0  0  0  0
   -0.7500   -1.2990    0.0000 C   0  0  0  0  0  0  0  0  0  0  0  0
   -2.2500   -1.2990    0.0000 C   0  0  0  0  0  0  0  0  0  0  0  0
   -3.0000   -2.5981    0.0000 C   0  0  0  0  0  0  0  0  0  0  0  0
   -2.2500   -3.8971    0.0000 C   0  0  0  0  0  0  0  0  0  0  0  0
   -3.0000   -5.1962    0.0000 F   0  0  0  0  0  0  0  0  0  0  0  0
   -0.7500   -3.8971    0.0000 C   0  0  0  0  0  0  0  0  0  0  0  0
   -0.0000   -2.5981    0.0000 C   0  0  0  0  0  0  0  0  0  0  0  0
    2.2500    1.2990    0.0000 C   0  0  0  0  0  0  0  0  0  0  0  0
    3.7500    1.2990    0.0000 C   0  0  0  0  0  0  0  0  0  0  0  0
  1  2  1  0
  2  3  2  0
  3  4  1  0
  4  5  2  0
  5  6  1  0
  6  7  1  0
  7  8  2  0
  8  9  1  0
  9 10  2  0
 10 11  1  0
 10 12  1  0
 12 13  2  0
  6 14  1  0
 14 15  2  0
 15 16  1  0
 16 17  2  0
 17 18  1  0
 17 19  1  0
 19 20  2  0
  5 21  1  0
 21 22  2  0
 22  2  1  0
 13  7  1  0
 20 14  1  0
M  END
>  <linear_selectivity>  (329) 
30

>  <denticity>  (329) 
1

>  <ligand_class>  (329) 
phosphine

$$$$
P(4-F-Ph)3_120C_dioxane
     RDKit          2D

 22 24  0  0  0  0  0  0  0  0999 V2000
    6.0000   -0.0000    0.0000 F   0  0  0  0  0  0  0  0  0  0  0  0
    4.5000   -0.0000    0.0000 C   0  0  0  0  0  0  0  0  0  0  0  0
    3.7500   -1.2990    0.0000 C   0  0  0  0  0  0  0  0  0  0  0  0
    2.2500   -1.2990    0.0000 C   0  0  0  0  0  0  0  0  0  0  0  0
    1.5000   -0.0000    0.0000 C   0  0  0  0  0  0  0  0  0  0  0  0
    0.0000   -0.0000    0.0000 P   0  0  0  0  0  0  0  0  0  0  0  0
   -0.7500    1.2990    0.0000 C   0  0  0  0  0  0  0  0  0  0  0  0
    0.0000    2.5981    0.0000 C   0  0  0  0  0  0  0  0  0  0  0  0
   -0.7500    3.8971    0.0000 C   0  0  0  0  0  0  0  0  0  0  0  0
   -2.2500    3.8971    0.0000 C   0  0  0  0  0  0  0  0  0  0  0  0
   -3.0000    5.1962    0.0000 F   0  0  0  0  0  0  0  0  0  0  0  0
   -3.0000    2.5981    0.0000 C   0  0  0  0  0  0  0  0  0  0  0  0
   -2.2500    1.2990    0.0000 C   0  0  0  0  0  0  0  0  0  0  0  0
   -0.7500   -1.2990    0.0000 C   0  0  0  0  0  0  0  0  0  0  0  0
   -2.2500   -1.2990    0.0000 C   0  0  0  0  0  0  0  0  0  0  0  0
   -3.0000   -2.5981    0.0000 C   0  0  0  0  0  0  0  0  0  0  0  0
   -2.2500   -3.8971    0.0000 C   0  0  0  0  0  0  0  0  0  0  0  0
   -3.0000   -5.1962    0.0000 F   0  0  0  0  0  0  0  0  0  0  0  0
   -0.7500   -3.8971    0.0000 C   0  0  0  0  0  0  0  0  0  0  0  0
   -0.0000   -2.5981    0.0000 C   0  0  0  0  0  0  0  0  0  0  0  0
    2.2500    1.2990    0.0000 C   0  0  0  0  0  0  0  0  0  0  0  0
    3.7500    1.2990    0.0000 C   0  0  0  0  0  0  0  0  0  0  0  0
  1  2  1  0
  2  3  2  0
  3  4  1  0
  4  5  2  0
  5  6  1  0
  6  7  1  0
  7  8  2  0
  8  9  1  0
  9 10  2  0
 10 11  1  0
 10 12  1  0
 12 13  2  0
  6 14  1  0
 14 15  2  0
 15 16  1  0
 16 17  2  0
 17 18  1  0
 17 19  1  0
 19 20  2  0
  5 21  1  0
 21 22  2  0
 22  2  1  0
 13  7  1  0
 20 14  1  0
M  END
>  <linear_selectivity>  (330) 
27

>  <denticity>  (330) 
1

>  <ligand_class>  (330) 
phosphine

$$$$
P(4-F-Ph)3_120C_hexane
     RDKit          2D

 22 24  0  0  0  0  0  0  0  0999 V2000
    6.0000   -0.0000    0.0000 F   0  0  0  0  0  0  0  0  0  0  0  0
    4.5000   -0.0000    0.0000 C   0  0  0  0  0  0  0  0  0  0  0  0
    3.7500   -1.2990    0.0000 C   0  0  0  0  0  0  0  0  0  0  0  0
    2.2500   -1.2990    0.0000 C   0  0  0  0  0  0  0  0  0  0  0  0
    1.5000   -0.0000    0.0000 C   0  0  0  0  0  0  0  0  0  0  0  0
    0.0000   -0.0000    0.0000 P   0  0  0  0  0  0  0  0  0  0  0  0
   -0.7500    1.2990    0.0000 C   0  0  0  0  0  0  0  0  0  0  0  0
    0.0000    2.5981    0.0000 C   0  0  0  0  0  0  0  0  0  0  0  0
   -0.7500    3.8971    0.0000 C   0  0  0  0  0  0  0  0  0  0  0  0
   -2.2500    3.8971    0.0000 C   0  0  0  0  0  0  0  0  0  0  0  0
   -3.0000    5.1962    0.0000 F   0  0  0  0  0  0  0  0  0  0  0  0
   -3.0000    2.5981    0.0000 C   0  0  0  0  0  0  0  0  0  0  0  0
   -2.2500    1.2990    0.0000 C   0  0  0  0  0  0  0  0  0  0  0  0
   -0.7500   -1.2990    0.0000 C   0  0  0  0  0  0  0  0  0  0  0  0
   -2.2500   -1.2990    0.0000 C   0  0  0  0  0  0  0  0  0  0  0  0
   -3.0000   -2.5981    0.0000 C   0  0  0  0  0  0  0  0  0  0  0  0
   -2.2500   -3.8971    0.0000 C   0  0  0  0  0  0  0  0  0  0  0  0
   -3.0000   -5.1962    0.0000 F   0  0  0  0  0  0  0  0  0  0  0  0
   -0.7500   -3.8971    0.0000 C   0  0  0  0  0  0  0  0  0  0  0  0
   -0.0000   -2.5981    0.0000 C   0  0  0  0  0  0  0  0  0  0  0  0
    2.2500    1.2990    0.0000 C   0  0  0  0  0  0  0  0  0  0  0  0
    3.7500    1.2990    0.0000 C   0  0  0  0  0  0  0  0  0  0  0  0
  1  2  1  0
  2  3  2  0
  3  4  1  0
  4  5  2  0
  5  6  1  0
  6  7  1  0
  7  8  2  0
  8  9  1  0
  9 10  2  0
 10 11  1  0
 10 12  1  0
 12 13  2  0
  6 14  1  0
 14 15  2  0
 15 16  1  0
 16 17  2  0
 17 18  1  0
 17 19  1  0
 19 20  2  0
  5 21  1  0
 21 22  2  0
 22  2  1  0
 13  7  1  0
 20 14  1  0
M  END
>  <linear_selectivity>  (331) 
28

>  <denticity>  (331) 
1

>  <ligand_class>  (331) 
phosphine

$$$$
P(4-F-Ph)3_130C_toluene
     RDKit          2D

 22 24  0  0  0  0  0  0  0  0999 V2000
    6.0000   -0.0000    0.0000 F   0  0  0  0  0  0  0  0  0  0  0  0
    4.5000   -0.0000    0.0000 C   0  0  0  0  0  0  0  0  0  0  0  0
    3.7500   -1.2990    0.0000 C   0  0  0  0  0  0  0  0  0  0  0  0
    2.2500   -1.2990    0.0000 C   0  0  0  0  0  0  0  0  0  0  0  0
    1.5000   -0.0000    0.0000 C   0  0  0  0  0  0  0  0  0  0  0  0
    0.0000   -0.0000    0.0000 P   0  0  0  0  0  0  0  0  0  0  0  0
   -0.7500    1.2990    0.0000 C   0  0  0  0  0  0  0  0  0  0  0  0
    0.0000    2.5981    0.0000 C   0  0  0  0  0  0  0  0  0  0  0  0
   -0.7500    3.8971    0.0000 C   0  0  0  0  0  0  0  0  0  0  0  0
   -2.2500    3.8971    0.0000 C   0  0  0  0  0  0  0  0  0  0  0  0
   -3.0000    5.1962    0.0000 F   0  0  0  0  0  0  0  0  0  0  0  0
   -3.0000    2.5981    0.0000 C   0  0  0  0  0  0  0  0  0  0  0  0
   -2.2500    1.2990    0.0000 C   0  0  0  0  0  0  0  0  0  0  0  0
   -0.7500   -1.2990    0.0000 C   0  0  0  0  0  0  0  0  0  0  0  0
   -2.2500   -1.2990    0.0000 C   0  0  0  0  0  0  0  0  0  0  0  0
   -3.0000   -2.5981    0.0000 C   0  0  0  0  0  0  0  0  0  0  0  0
   -2.2500   -3.8971    0.0000 C   0  0  0  0  0  0  0  0  0  0  0  0
   -3.0000   -5.1962    0.0000 F   0  0  0  0  0  0  0  0  0  0  0  0
   -0.7500   -3.8971    0.0000 C   0  0  0  0  0  0  0  0  0  0  0  0
   -0.0000   -2.5981    0.0000 C   0  0  0  0  0  0  0  0  0  0  0  0
    2.2500    1.2990    0.0000 C   0  0  0  0  0  0  0  0  0  0  0  0
    3.7500    1.2990    0.0000 C   0  0  0  0  0  0  0  0  0  0  0  0
  1  2  1  0
  2  3  2  0
  3  4  1  0
  4  5  2  0
  5  6  1  0
  6  7  1  0
  7  8  2  0
  8  9  1  0
  9 10  2  0
 10 11  1  0
 10 12  1  0
 12 13  2  0
  6 14  1  0
 14 15  2  0
 15 16  1  0
 16 17  2  0
 17 18  1  0
 17 19  1  0
 19 20  2  0
  5 21  1  0
 21 22  2  0
 22  2  1  0
 13  7  1  0
 20 14  1  0
M  END
>  <linear_selectivity>  (332) 
31

>  <denticity>  (332) 
1

>  <ligand_class>  (332) 
phosphine

$$$$
P(4-F-Ph)3_130C_THF
     RDKit          2D

 22 24  0  0  0  0  0  0  0  0999 V2000
    6.0000   -0.0000    0.0000 F   0  0  0  0  0  0  0  0  0  0  0  0
    4.5000   -0.0000    0.0000 C   0  0  0  0  0  0  0  0  0  0  0  0
    3.7500   -1.2990    0.0000 C   0  0  0  0  0  0  0  0  0  0  0  0
    2.2500   -1.2990    0.0000 C   0  0  0  0  0  0  0  0  0  0  0  0
    1.5000   -0.0000    0.0000 C   0  0  0  0  0  0  0  0  0  0  0  0
    0.0000   -0.0000    0.0000 P   0  0  0  0  0  0  0  0  0  0  0  0
   -0.7500    1.2990    0.0000 C   0  0  0  0  0  0  0  0  0  0  0  0
    0.0000    2.5981    0.0000 C   0  0  0  0  0  0  0  0  0  0  0  0
   -0.7500    3.8971    0.0000 C   0  0  0  0  0  0  0  0  0  0  0  0
   -2.2500    3.8971    0.0000 C   0  0  0  0  0  0  0  0  0  0  0  0
   -3.0000    5.1962    0.0000 F   0  0  0  0  0  0  0  0  0  0  0  0
   -3.0000    2.5981    0.0000 C   0  0  0  0  0  0  0  0  0  0  0  0
   -2.2500    1.2990    0.0000 C   0  0  0  0  0  0  0  0  0  0  0  0
   -0.7500   -1.2990    0.0000 C   0  0  0  0  0  0  0  0  0  0  0  0
   -2.2500   -1.2990    0.0000 C   0  0  0  0  0  0  0  0  0  0  0  0
   -3.0000   -2.5981    0.0000 C   0  0  0  0  0  0  0  0  0  0  0  0
   -2.2500   -3.8971    0.0000 C   0  0  0  0  0  0  0  0  0  0  0  0
   -3.0000   -5.1962    0.0000 F   0  0  0  0  0  0  0  0  0  0  0  0
   -0.7500   -3.8971    0.0000 C   0  0  0  0  0  0  0  0  0  0  0  0
   -0.0000   -2.5981    0.0000 C   0  0  0  0  0  0  0  0  0  0  0  0
    2.2500    1.2990    0.0000 C   0  0  0  0  0  0  0  0  0  0  0  0
    3.7500    1.2990    0.0000 C   0  0  0  0  0  0  0  0  0  0  0  0
  1  2  1  0
  2  3  2  0
  3  4  1  0
  4  5  2  0
  5  6  1  0
  6  7  1  0
  7  8  2  0
  8  9  1  0
  9 10  2  0
 10 11  1  0
 10 12  1  0
 12 13  2  0
  6 14  1  0
 14 15  2  0
 15 16  1  0
 16 17  2  0
 17 18  1  0
 17 19  1  0
 19 20  2  0
  5 21  1  0
 21 22  2  0
 22  2  1  0
 13  7  1  0
 20 14  1  0
M  END
>  <linear_selectivity>  (333) 
25

>  <denticity>  (333) 
1

>  <ligand_class>  (333) 
phosphine

$$$$
P(4-F-Ph)3_130C_dioxane
     RDKit          2D

 22 24  0  0  0  0  0  0  0  0999 V2000
    6.0000   -0.0000    0.0000 F   0  0  0  0  0  0  0  0  0  0  0  0
    4.5000   -0.0000    0.0000 C   0  0  0  0  0  0  0  0  0  0  0  0
    3.7500   -1.2990    0.0000 C   0  0  0  0  0  0  0  0  0  0  0  0
    2.2500   -1.2990    0.0000 C   0  0  0  0  0  0  0  0  0  0  0  0
    1.5000   -0.0000    0.0000 C   0  0  0  0  0  0  0  0  0  0  0  0
    0.0000   -0.0000    0.0000 P   0  0  0  0  0  0  0  0  0  0  0  0
   -0.7500    1.2990    0.0000 C   0  0  0  0  0  0  0  0  0  0  0  0
    0.0000    2.5981    0.0000 C   0  0  0  0  0  0  0  0  0  0  0  0
   -0.7500    3.8971    0.0000 C   0  0  0  0  0  0  0  0  0  0  0  0
   -2.2500    3.8971    0.0000 C   0  0  0  0  0  0  0  0  0  0  0  0
   -3.0000    5.1962    0.0000 F   0  0  0  0  0  0  0  0  0  0  0  0
   -3.0000    2.5981    0.0000 C   0  0  0  0  0  0  0  0  0  0  0  0
   -2.2500    1.2990    0.0000 C   0  0  0  0  0  0  0  0  0  0  0  0
   -0.7500   -1.2990    0.0000 C   0  0  0  0  0  0  0  0  0  0  0  0
   -2.2500   -1.2990    0.0000 C   0  0  0  0  0  0  0  0  0  0  0  0
   -3.0000   -2.5981    0.0000 C   0  0  0  0  0  0  0  0  0  0  0  0
   -2.2500   -3.8971    0.0000 C   0  0  0  0  0  0  0  0  0  0  0  0
   -3.0000   -5.1962    0.0000 F   0  0  0  0  0  0  0  0  0  0  0  0
   -0.7500   -3.8971    0.0000 C   0  0  0  0  0  0  0  0  0  0  0  0
   -0.0000   -2.5981    0.0000 C   0  0  0  0  0  0  0  0  0  0  0  0
    2.2500    1.2990    0.0000 C   0  0  0  0  0  0  0  0  0  0  0  0
    3.7500    1.2990    0.0000 C   0  0  0  0  0  0  0  0  0  0  0  0
  1  2  1  0
  2  3  2  0
  3  4  1  0
  4  5  2  0
  5  6  1  0
  6  7  1  0
  7  8  2  0
  8  9  1  0
  9 10  2  0
 10 11  1  0
 10 12  1  0
 12 13  2  0
  6 14  1  0
 14 15  2  0
 15 16  1  0
 16 17  2  0
 17 18  1  0
 17 19  1  0
 19 20  2  0
  5 21  1  0
 21 22  2  0
 22  2  1  0
 13  7  1  0
 20 14  1  0
M  END
>  <linear_selectivity>  (334) 
28

>  <denticity>  (334) 
1

>  <ligand_class>  (334) 
phosphine

$$$$
P(4-F-Ph)3_130C_hexane
     RDKit          2D

 22 24  0  0  0  0  0  0  0  0999 V2000
    6.0000   -0.0000    0.0000 F   0  0  0  0  0  0  0  0  0  0  0  0
    4.5000   -0.0000    0.0000 C   0  0  0  0  0  0  0  0  0  0  0  0
    3.7500   -1.2990    0.0000 C   0  0  0  0  0  0  0  0  0  0  0  0
    2.2500   -1.2990    0.0000 C   0  0  0  0  0  0  0  0  0  0  0  0
    1.5000   -0.0000    0.0000 C   0  0  0  0  0  0  0  0  0  0  0  0
    0.0000   -0.0000    0.0000 P   0  0  0  0  0  0  0  0  0  0  0  0
   -0.7500    1.2990    0.0000 C   0  0  0  0  0  0  0  0  0  0  0  0
    0.0000    2.5981    0.0000 C   0  0  0  0  0  0  0  0  0  0  0  0
   -0.7500    3.8971    0.0000 C   0  0  0  0  0  0  0  0  0  0  0  0
   -2.2500    3.8971    0.0000 C   0  0  0  0  0  0  0  0  0  0  0  0
   -3.0000    5.1962    0.0000 F   0  0  0  0  0  0  0  0  0  0  0  0
   -3.0000    2.5981    0.0000 C   0  0  0  0  0  0  0  0  0  0  0  0
   -2.2500    1.2990    0.0000 C   0  0  0  0  0  0  0  0  0  0  0  0
   -0.7500   -1.2990    0.0000 C   0  0  0  0  0  0  0  0  0  0  0  0
   -2.2500   -1.2990    0.0000 C   0  0  0  0  0  0  0  0  0  0  0  0
   -3.0000   -2.5981    0.0000 C   0  0  0  0  0  0  0  0  0  0  0  0
   -2.2500   -3.8971    0.0000 C   0  0  0  0  0  0  0  0  0  0  0  0
   -3.0000   -5.1962    0.0000 F   0  0  0  0  0  0  0  0  0  0  0  0
   -0.7500   -3.8971    0.0000 C   0  0  0  0  0  0  0  0  0  0  0  0
   -0.0000   -2.5981    0.0000 C   0  0  0  0  0  0  0  0  0  0  0  0
    2.2500    1.2990    0.0000 C   0  0  0  0  0  0  0  0  0  0  0  0
    3.7500    1.2990    0.0000 C   0  0  0  0  0  0  0  0  0  0  0  0
  1  2  1  0
  2  3  2  0
  3  4  1  0
  4  5  2  0
  5  6  1  0
  6  7  1  0
  7  8  2  0
  8  9  1  0
  9 10  2  0
 10 11  1  0
 10 12  1  0
 12 13  2  0
  6 14  1  0
 14 15  2  0
 15 16  1  0
 16 17  2  0
 17 18  1  0
 17 19  1  0
 19 20  2  0
  5 21  1  0
 21 22  2  0
 22  2  1  0
 13  7  1  0
 20 14  1  0
M  END
>  <linear_selectivity>  (335) 
30

>  <denticity>  (335) 
1

>  <ligand_class>  (335) 
phosphine

$$$$
P(4-F-Ph)3_130C_benzene
     RDKit          2D

 22 24  0  0  0  0  0  0  0  0999 V2000
    6.0000   -0.0000    0.0000 F   0  0  0  0  0  0  0  0  0  0  0  0
    4.5000   -0.0000    0.0000 C   0  0  0  0  0  0  0  0  0  0  0  0
    3.7500   -1.2990    0.0000 C   0  0  0  0  0  0  0  0  0  0  0  0
    2.2500   -1.2990    0.0000 C   0  0  0  0  0  0  0  0  0  0  0  0
    1.5000   -0.0000    0.0000 C   0  0  0  0  0  0  0  0  0  0  0  0
    0.0000   -0.0000    0.0000 P   0  0  0  0  0  0  0  0  0  0  0  0
   -0.7500    1.2990    0.0000 C   0  0  0  0  0  0  0  0  0  0  0  0
    0.0000    2.5981    0.0000 C   0  0  0  0  0  0  0  0  0  0  0  0
   -0.7500    3.8971    0.0000 C   0  0  0  0  0  0  0  0  0  0  0  0
   -2.2500    3.8971    0.0000 C   0  0  0  0  0  0  0  0  0  0  0  0
   -3.0000    5.1962    0.0000 F   0  0  0  0  0  0  0  0  0  0  0  0
   -3.0000    2.5981    0.0000 C   0  0  0  0  0  0  0  0  0  0  0  0
   -2.2500    1.2990    0.0000 C   0  0  0  0  0  0  0  0  0  0  0  0
   -0.7500   -1.2990    0.0000 C   0  0  0  0  0  0  0  0  0  0  0  0
   -2.2500   -1.2990    0.0000 C   0  0  0  0  0  0  0  0  0  0  0  0
   -3.0000   -2.5981    0.0000 C   0  0  0  0  0  0  0  0  0  0  0  0
   -2.2500   -3.8971    0.0000 C   0  0  0  0  0  0  0  0  0  0  0  0
   -3.0000   -5.1962    0.0000 F   0  0  0  0  0  0  0  0  0  0  0  0
   -0.7500   -3.8971    0.0000 C   0  0  0  0  0  0  0  0  0  0  0  0
   -0.0000   -2.5981    0.0000 C   0  0  0  0  0  0  0  0  0  0  0  0
    2.2500    1.2990    0.0000 C   0  0  0  0  0  0  0  0  0  0  0  0
    3.7500    1.2990    0.0000 C   0  0  0  0  0  0  0  0  0  0  0  0
  1  2  1  0
  2  3  2  0
  3  4  1  0
  4  5  2  0
  5  6  1  0
  6  7  1  0
  7  8  2  0
  8  9  1  0
  9 10  2  0
 10 11  1  0
 10 12  1  0
 12 13  2  0
  6 14  1  0
 14 15  2  0
 15 16  1  0
 16 17  2  0
 17 18  1  0
 17 19  1  0
 19 20  2  0
  5 21  1  0
 21 22  2  0
 22  2  1  0
 13  7  1  0
 20 14  1  0
M  END
>  <linear_selectivity>  (336) 
31

>  <denticity>  (336) 
1

>  <ligand_class>  (336) 
phosphine

$$$$
P(4-F-Ph)3_130C_xylene
     RDKit          2D

 22 24  0  0  0  0  0  0  0  0999 V2000
    6.0000   -0.0000    0.0000 F   0  0  0  0  0  0  0  0  0  0  0  0
    4.5000   -0.0000    0.0000 C   0  0  0  0  0  0  0  0  0  0  0  0
    3.7500   -1.2990    0.0000 C   0  0  0  0  0  0  0  0  0  0  0  0
    2.2500   -1.2990    0.0000 C   0  0  0  0  0  0  0  0  0  0  0  0
    1.5000   -0.0000    0.0000 C   0  0  0  0  0  0  0  0  0  0  0  0
    0.0000   -0.0000    0.0000 P   0  0  0  0  0  0  0  0  0  0  0  0
   -0.7500    1.2990    0.0000 C   0  0  0  0  0  0  0  0  0  0  0  0
    0.0000    2.5981    0.0000 C   0  0  0  0  0  0  0  0  0  0  0  0
   -0.7500    3.8971    0.0000 C   0  0  0  0  0  0  0  0  0  0  0  0
   -2.2500    3.8971    0.0000 C   0  0  0  0  0  0  0  0  0  0  0  0
   -3.0000    5.1962    0.0000 F   0  0  0  0  0  0  0  0  0  0  0  0
   -3.0000    2.5981    0.0000 C   0  0  0  0  0  0  0  0  0  0  0  0
   -2.2500    1.2990    0.0000 C   0  0  0  0  0  0  0  0  0  0  0  0
   -0.7500   -1.2990    0.0000 C   0  0  0  0  0  0  0  0  0  0  0  0
   -2.2500   -1.2990    0.0000 C   0  0  0  0  0  0  0  0  0  0  0  0
   -3.0000   -2.5981    0.0000 C   0  0  0  0  0  0  0  0  0  0  0  0
   -2.2500   -3.8971    0.0000 C   0  0  0  0  0  0  0  0  0  0  0  0
   -3.0000   -5.1962    0.0000 F   0  0  0  0  0  0  0  0  0  0  0  0
   -0.7500   -3.8971    0.0000 C   0  0  0  0  0  0  0  0  0  0  0  0
   -0.0000   -2.5981    0.0000 C   0  0  0  0  0  0  0  0  0  0  0  0
    2.2500    1.2990    0.0000 C   0  0  0  0  0  0  0  0  0  0  0  0
    3.7500    1.2990    0.0000 C   0  0  0  0  0  0  0  0  0  0  0  0
  1  2  1  0
  2  3  2  0
  3  4  1  0
  4  5  2  0
  5  6  1  0
  6  7  1  0
  7  8  2  0
  8  9  1  0
  9 10  2  0
 10 11  1  0
 10 12  1  0
 12 13  2  0
  6 14  1  0
 14 15  2  0
 15 16  1  0
 16 17  2  0
 17 18  1  0
 17 19  1  0
 19 20  2  0
  5 21  1  0
 21 22  2  0
 22  2  1  0
 13  7  1  0
 20 14  1  0
M  END
>  <linear_selectivity>  (337) 
31

>  <denticity>  (337) 
1

>  <ligand_class>  (337) 
phosphine

$$$$
P(4-CF3-Ph)3
     RDKit          2D

 31 33  0  0  0  0  0  0  0  0999 V2000
    7.5000   -0.0000    0.0000 F   0  0  0  0  0  0  0  0  0  0  0  0
    6.0000   -0.0000    0.0000 C   0  0  0  0  0  0  0  0  0  0  0  0
    6.0000   -1.5000    0.0000 F   0  0  0  0  0  0  0  0  0  0  0  0
    6.0000    1.5000    0.0000 F   0  0  0  0  0  0  0  0  0  0  0  0
    4.5000   -0.0000    0.0000 C   0  0  0  0  0  0  0  0  0  0  0  0
    3.7500   -1.2990    0.0000 C   0  0  0  0  0  0  0  0  0  0  0  0
    2.2500   -1.2990    0.0000 C   0  0  0  0  0  0  0  0  0  0  0  0
    1.5000   -0.0000    0.0000 C   0  0  0  0  0  0  0  0  0  0  0  0
    0.0000    0.0000    0.0000 P   0  0  0  0  0  0  0  0  0  0  0  0
   -0.7500    1.2990    0.0000 C   0  0  0  0  0  0  0  0  0  0  0  0
    0.0000    2.5981    0.0000 C   0  0  0  0  0  0  0  0  0  0  0  0
   -0.7500    3.8971    0.0000 C   0  0  0  0  0  0  0  0  0  0  0  0
   -2.2500    3.8971    0.0000 C   0  0  0  0  0  0  0  0  0  0  0  0
   -3.0000    5.1962    0.0000 C   0  0  0  0  0  0  0  0  0  0  0  0
   -3.7500    6.4952    0.0000 F   0  0  0  0  0  0  0  0  0  0  0  0
   -1.7010    5.9462    0.0000 F   0  0  0  0  0  0  0  0  0  0  0  0
   -4.2990    4.4462    0.0000 F   0  0  0  0  0  0  0  0  0  0  0  0
   -3.0000    2.5981    0.0000 C   0  0  0  0  0  0  0  0  0  0  0  0
   -2.2500    1.2990    0.0000 C   0  0  0  0  0  0  0  0  0  0  0  0
   -0.7500   -1.2990    0.0000 C   0  0  0  0  0  0  0  0  0  0  0  0
   -2.2500   -1.2990    0.0000 C   0  0  0  0  0  0  0  0  0  0  0  0
   -3.0000   -2.5981    0.0000 C   0  0  0  0  0  0  0  0  0  0  0  0
   -2.2500   -3.8971    0.0000 C   0  0  0  0  0  0  0  0  0  0  0  0
   -3.0000   -5.1962    0.0000 C   0  0  0  0  0  0  0  0  0  0  0  0
   -3.7500   -6.4952    0.0000 F   0  0  0  0  0  0  0  0  0  0  0  0
   -4.2990   -4.4462    0.0000 F   0  0  0  0  0  0  0  0  0  0  0  0
   -1.7010   -5.9462    0.0000 F   0  0  0  0  0  0  0  0  0  0  0  0
   -0.7500   -3.8971    0.0000 C   0  0  0  0  0  0  0  0  0  0  0  0
   -0.0000   -2.5981    0.0000 C   0  0  0  0  0  0  0  0  0  0  0  0
    2.2500    1.2990    0.0000 C   0  0  0  0  0  0  0  0  0  0  0  0
    3.7500    1.2990    0.0000 C   0  0  0  0  0  0  0  0  0  0  0  0
  1  2  1  0
  2  3  1  0
  2  4  1  0
  2  5  1  0
  5  6  2  0
  6  7  1  0
  7  8  2  0
  8  9  1  0
  9 10  1  0
 10 11  2  0
 11 12  1  0
 12 13  2  0
 13 14  1  0
 14 15  1  0
 14 16  1  0
 14 17  1  0
 13 18  1  0
 18 19  2  0
  9 20  1  0
 20 21  2  0
 21 22  1  0
 22 23  2  0
 23 24  1  0
 24 25  1  0
 24 26  1  0
 24 27  1  0
 23 28  1  0
 28 29  2  0
  8 30  1  0
 30 31  2  0
 31  5  1  0
 19 10  1  0
 29 20  1  0
M  END
>  <linear_selectivity>  (338) 
38

>  <denticity>  (338) 
1

>  <ligand_class>  (338) 
phosphine

$$$$
P(4-CF3-Ph)3_70C_toluene
     RDKit          2D

 31 33  0  0  0  0  0  0  0  0999 V2000
    7.5000   -0.0000    0.0000 F   0  0  0  0  0  0  0  0  0  0  0  0
    6.0000   -0.0000    0.0000 C   0  0  0  0  0  0  0  0  0  0  0  0
    6.0000   -1.5000    0.0000 F   0  0  0  0  0  0  0  0  0  0  0  0
    6.0000    1.5000    0.0000 F   0  0  0  0  0  0  0  0  0  0  0  0
    4.5000   -0.0000    0.0000 C   0  0  0  0  0  0  0  0  0  0  0  0
    3.7500   -1.2990    0.0000 C   0  0  0  0  0  0  0  0  0  0  0  0
    2.2500   -1.2990    0.0000 C   0  0  0  0  0  0  0  0  0  0  0  0
    1.5000   -0.0000    0.0000 C   0  0  0  0  0  0  0  0  0  0  0  0
    0.0000    0.0000    0.0000 P   0  0  0  0  0  0  0  0  0  0  0  0
   -0.7500    1.2990    0.0000 C   0  0  0  0  0  0  0  0  0  0  0  0
    0.0000    2.5981    0.0000 C   0  0  0  0  0  0  0  0  0  0  0  0
   -0.7500    3.8971    0.0000 C   0  0  0  0  0  0  0  0  0  0  0  0
   -2.2500    3.8971    0.0000 C   0  0  0  0  0  0  0  0  0  0  0  0
   -3.0000    5.1962    0.0000 C   0  0  0  0  0  0  0  0  0  0  0  0
   -3.7500    6.4952    0.0000 F   0  0  0  0  0  0  0  0  0  0  0  0
   -1.7010    5.9462    0.0000 F   0  0  0  0  0  0  0  0  0  0  0  0
   -4.2990    4.4462    0.0000 F   0  0  0  0  0  0  0  0  0  0  0  0
   -3.0000    2.5981    0.0000 C   0  0  0  0  0  0  0  0  0  0  0  0
   -2.2500    1.2990    0.0000 C   0  0  0  0  0  0  0  0  0  0  0  0
   -0.7500   -1.2990    0.0000 C   0  0  0  0  0  0  0  0  0  0  0  0
   -2.2500   -1.2990    0.0000 C   0  0  0  0  0  0  0  0  0  0  0  0
   -3.0000   -2.5981    0.0000 C   0  0  0  0  0  0  0  0  0  0  0  0
   -2.2500   -3.8971    0.0000 C   0  0  0  0  0  0  0  0  0  0  0  0
   -3.0000   -5.1962    0.0000 C   0  0  0  0  0  0  0  0  0  0  0  0
   -3.7500   -6.4952    0.0000 F   0  0  0  0  0  0  0  0  0  0  0  0
   -4.2990   -4.4462    0.0000 F   0  0  0  0  0  0  0  0  0  0  0  0
   -1.7010   -5.9462    0.0000 F   0  0  0  0  0  0  0  0  0  0  0  0
   -0.7500   -3.8971    0.0000 C   0  0  0  0  0  0  0  0  0  0  0  0
   -0.0000   -2.5981    0.0000 C   0  0  0  0  0  0  0  0  0  0  0  0
    2.2500    1.2990    0.0000 C   0  0  0  0  0  0  0  0  0  0  0  0
    3.7500    1.2990    0.0000 C   0  0  0  0  0  0  0  0  0  0  0  0
  1  2  1  0
  2  3  1  0
  2  4  1  0
  2  5  1  0
  5  6  2  0
  6  7  1  0
  7  8  2  0
  8  9  1  0
  9 10  1  0
 10 11  2  0
 11 12  1  0
 12 13  2  0
 13 14  1  0
 14 15  1  0
 14 16  1  0
 14 17  1  0
 13 18  1  0
 18 19  2  0
  9 20  1  0
 20 21  2  0
 21 22  1  0
 22 23  2  0
 23 24  1  0
 24 25  1  0
 24 26  1  0
 24 27  1  0
 23 28  1  0
 28 29  2  0
  8 30  1  0
 30 31  2  0
 31  5  1  0
 19 10  1  0
 29 20  1  0
M  END
>  <linear_selectivity>  (339) 
43

>  <denticity>  (339) 
1

>  <ligand_class>  (339) 
phosphine

$$$$
P(4-CF3-Ph)3_70C_THF
     RDKit          2D

 31 33  0  0  0  0  0  0  0  0999 V2000
    7.5000   -0.0000    0.0000 F   0  0  0  0  0  0  0  0  0  0  0  0
    6.0000   -0.0000    0.0000 C   0  0  0  0  0  0  0  0  0  0  0  0
    6.0000   -1.5000    0.0000 F   0  0  0  0  0  0  0  0  0  0  0  0
    6.0000    1.5000    0.0000 F   0  0  0  0  0  0  0  0  0  0  0  0
    4.5000   -0.0000    0.0000 C   0  0  0  0  0  0  0  0  0  0  0  0
    3.7500   -1.2990    0.0000 C   0  0  0  0  0  0  0  0  0  0  0  0
    2.2500   -1.2990    0.0000 C   0  0  0  0  0  0  0  0  0  0  0  0
    1.5000   -0.0000    0.0000 C   0  0  0  0  0  0  0  0  0  0  0  0
    0.0000    0.0000    0.0000 P   0  0  0  0  0  0  0  0  0  0  0  0
   -0.7500    1.2990    0.0000 C   0  0  0  0  0  0  0  0  0  0  0  0
    0.0000    2.5981    0.0000 C   0  0  0  0  0  0  0  0  0  0  0  0
   -0.7500    3.8971    0.0000 C   0  0  0  0  0  0  0  0  0  0  0  0
   -2.2500    3.8971    0.0000 C   0  0  0  0  0  0  0  0  0  0  0  0
   -3.0000    5.1962    0.0000 C   0  0  0  0  0  0  0  0  0  0  0  0
   -3.7500    6.4952    0.0000 F   0  0  0  0  0  0  0  0  0  0  0  0
   -1.7010    5.9462    0.0000 F   0  0  0  0  0  0  0  0  0  0  0  0
   -4.2990    4.4462    0.0000 F   0  0  0  0  0  0  0  0  0  0  0  0
   -3.0000    2.5981    0.0000 C   0  0  0  0  0  0  0  0  0  0  0  0
   -2.2500    1.2990    0.0000 C   0  0  0  0  0  0  0  0  0  0  0  0
   -0.7500   -1.2990    0.0000 C   0  0  0  0  0  0  0  0  0  0  0  0
   -2.2500   -1.2990    0.0000 C   0  0  0  0  0  0  0  0  0  0  0  0
   -3.0000   -2.5981    0.0000 C   0  0  0  0  0  0  0  0  0  0  0  0
   -2.2500   -3.8971    0.0000 C   0  0  0  0  0  0  0  0  0  0  0  0
   -3.0000   -5.1962    0.0000 C   0  0  0  0  0  0  0  0  0  0  0  0
   -3.7500   -6.4952    0.0000 F   0  0  0  0  0  0  0  0  0  0  0  0
   -4.2990   -4.4462    0.0000 F   0  0  0  0  0  0  0  0  0  0  0  0
   -1.7010   -5.9462    0.0000 F   0  0  0  0  0  0  0  0  0  0  0  0
   -0.7500   -3.8971    0.0000 C   0  0  0  0  0  0  0  0  0  0  0  0
   -0.0000   -2.5981    0.0000 C   0  0  0  0  0  0  0  0  0  0  0  0
    2.2500    1.2990    0.0000 C   0  0  0  0  0  0  0  0  0  0  0  0
    3.7500    1.2990    0.0000 C   0  0  0  0  0  0  0  0  0  0  0  0
  1  2  1  0
  2  3  1  0
  2  4  1  0
  2  5  1  0
  5  6  2  0
  6  7  1  0
  7  8  2  0
  8  9  1  0
  9 10  1  0
 10 11  2  0
 11 12  1  0
 12 13  2  0
 13 14  1  0
 14 15  1  0
 14 16  1  0
 14 17  1  0
 13 18  1  0
 18 19  2  0
  9 20  1  0
 20 21  2  0
 21 22  1  0
 22 23  2  0
 23 24  1  0
 24 25  1  0
 24 26  1  0
 24 27  1  0
 23 28  1  0
 28 29  2  0
  8 30  1  0
 30 31  2  0
 31  5  1  0
 19 10  1  0
 29 20  1  0
M  END
>  <linear_selectivity>  (340) 
44

>  <denticity>  (340) 
1

>  <ligand_class>  (340) 
phosphine

$$$$
P(4-CF3-Ph)3_70C_benzene
     RDKit          2D

 31 33  0  0  0  0  0  0  0  0999 V2000
    7.5000   -0.0000    0.0000 F   0  0  0  0  0  0  0  0  0  0  0  0
    6.0000   -0.0000    0.0000 C   0  0  0  0  0  0  0  0  0  0  0  0
    6.0000   -1.5000    0.0000 F   0  0  0  0  0  0  0  0  0  0  0  0
    6.0000    1.5000    0.0000 F   0  0  0  0  0  0  0  0  0  0  0  0
    4.5000   -0.0000    0.0000 C   0  0  0  0  0  0  0  0  0  0  0  0
    3.7500   -1.2990    0.0000 C   0  0  0  0  0  0  0  0  0  0  0  0
    2.2500   -1.2990    0.0000 C   0  0  0  0  0  0  0  0  0  0  0  0
    1.5000   -0.0000    0.0000 C   0  0  0  0  0  0  0  0  0  0  0  0
    0.0000    0.0000    0.0000 P   0  0  0  0  0  0  0  0  0  0  0  0
   -0.7500    1.2990    0.0000 C   0  0  0  0  0  0  0  0  0  0  0  0
    0.0000    2.5981    0.0000 C   0  0  0  0  0  0  0  0  0  0  0  0
   -0.7500    3.8971    0.0000 C   0  0  0  0  0  0  0  0  0  0  0  0
   -2.2500    3.8971    0.0000 C   0  0  0  0  0  0  0  0  0  0  0  0
   -3.0000    5.1962    0.0000 C   0  0  0  0  0  0  0  0  0  0  0  0
   -3.7500    6.4952    0.0000 F   0  0  0  0  0  0  0  0  0  0  0  0
   -1.7010    5.9462    0.0000 F   0  0  0  0  0  0  0  0  0  0  0  0
   -4.2990    4.4462    0.0000 F   0  0  0  0  0  0  0  0  0  0  0  0
   -3.0000    2.5981    0.0000 C   0  0  0  0  0  0  0  0  0  0  0  0
   -2.2500    1.2990    0.0000 C   0  0  0  0  0  0  0  0  0  0  0  0
   -0.7500   -1.2990    0.0000 C   0  0  0  0  0  0  0  0  0  0  0  0
   -2.2500   -1.2990    0.0000 C   0  0  0  0  0  0  0  0  0  0  0  0
   -3.0000   -2.5981    0.0000 C   0  0  0  0  0  0  0  0  0  0  0  0
   -2.2500   -3.8971    0.0000 C   0  0  0  0  0  0  0  0  0  0  0  0
   -3.0000   -5.1962    0.0000 C   0  0  0  0  0  0  0  0  0  0  0  0
   -3.7500   -6.4952    0.0000 F   0  0  0  0  0  0  0  0  0  0  0  0
   -4.2990   -4.4462    0.0000 F   0  0  0  0  0  0  0  0  0  0  0  0
   -1.7010   -5.9462    0.0000 F   0  0  0  0  0  0  0  0  0  0  0  0
   -0.7500   -3.8971    0.0000 C   0  0  0  0  0  0  0  0  0  0  0  0
   -0.0000   -2.5981    0.0000 C   0  0  0  0  0  0  0  0  0  0  0  0
    2.2500    1.2990    0.0000 C   0  0  0  0  0  0  0  0  0  0  0  0
    3.7500    1.2990    0.0000 C   0  0  0  0  0  0  0  0  0  0  0  0
  1  2  1  0
  2  3  1  0
  2  4  1  0
  2  5  1  0
  5  6  2  0
  6  7  1  0
  7  8  2  0
  8  9  1  0
  9 10  1  0
 10 11  2  0
 11 12  1  0
 12 13  2  0
 13 14  1  0
 14 15  1  0
 14 16  1  0
 14 17  1  0
 13 18  1  0
 18 19  2  0
  9 20  1  0
 20 21  2  0
 21 22  1  0
 22 23  2  0
 23 24  1  0
 24 25  1  0
 24 26  1  0
 24 27  1  0
 23 28  1  0
 28 29  2  0
  8 30  1  0
 30 31  2  0
 31  5  1  0
 19 10  1  0
 29 20  1  0
M  END
>  <linear_selectivity>  (341) 
46

>  <denticity>  (341) 
1

>  <ligand_class>  (341) 
phosphine

$$$$
P(4-CF3-Ph)3_70C_xylene
     RDKit          2D

 31 33  0  0  0  0  0  0  0  0999 V2000
    7.5000   -0.0000    0.0000 F   0  0  0  0  0  0  0  0  0  0  0  0
    6.0000   -0.0000    0.0000 C   0  0  0  0  0  0  0  0  0  0  0  0
    6.0000   -1.5000    0.0000 F   0  0  0  0  0  0  0  0  0  0  0  0
    6.0000    1.5000    0.0000 F   0  0  0  0  0  0  0  0  0  0  0  0
    4.5000   -0.0000    0.0000 C   0  0  0  0  0  0  0  0  0  0  0  0
    3.7500   -1.2990    0.0000 C   0  0  0  0  0  0  0  0  0  0  0  0
    2.2500   -1.2990    0.0000 C   0  0  0  0  0  0  0  0  0  0  0  0
    1.5000   -0.0000    0.0000 C   0  0  0  0  0  0  0  0  0  0  0  0
    0.0000    0.0000    0.0000 P   0  0  0  0  0  0  0  0  0  0  0  0
   -0.7500    1.2990    0.0000 C   0  0  0  0  0  0  0  0  0  0  0  0
    0.0000    2.5981    0.0000 C   0  0  0  0  0  0  0  0  0  0  0  0
   -0.7500    3.8971    0.0000 C   0  0  0  0  0  0  0  0  0  0  0  0
   -2.2500    3.8971    0.0000 C   0  0  0  0  0  0  0  0  0  0  0  0
   -3.0000    5.1962    0.0000 C   0  0  0  0  0  0  0  0  0  0  0  0
   -3.7500    6.4952    0.0000 F   0  0  0  0  0  0  0  0  0  0  0  0
   -1.7010    5.9462    0.0000 F   0  0  0  0  0  0  0  0  0  0  0  0
   -4.2990    4.4462    0.0000 F   0  0  0  0  0  0  0  0  0  0  0  0
   -3.0000    2.5981    0.0000 C   0  0  0  0  0  0  0  0  0  0  0  0
   -2.2500    1.2990    0.0000 C   0  0  0  0  0  0  0  0  0  0  0  0
   -0.7500   -1.2990    0.0000 C   0  0  0  0  0  0  0  0  0  0  0  0
   -2.2500   -1.2990    0.0000 C   0  0  0  0  0  0  0  0  0  0  0  0
   -3.0000   -2.5981    0.0000 C   0  0  0  0  0  0  0  0  0  0  0  0
   -2.2500   -3.8971    0.0000 C   0  0  0  0  0  0  0  0  0  0  0  0
   -3.0000   -5.1962    0.0000 C   0  0  0  0  0  0  0  0  0  0  0  0
   -3.7500   -6.4952    0.0000 F   0  0  0  0  0  0  0  0  0  0  0  0
   -4.2990   -4.4462    0.0000 F   0  0  0  0  0  0  0  0  0  0  0  0
   -1.7010   -5.9462    0.0000 F   0  0  0  0  0  0  0  0  0  0  0  0
   -0.7500   -3.8971    0.0000 C   0  0  0  0  0  0  0  0  0  0  0  0
   -0.0000   -2.5981    0.0000 C   0  0  0  0  0  0  0  0  0  0  0  0
    2.2500    1.2990    0.0000 C   0  0  0  0  0  0  0  0  0  0  0  0
    3.7500    1.2990    0.0000 C   0  0  0  0  0  0  0  0  0  0  0  0
  1  2  1  0
  2  3  1  0
  2  4  1  0
  2  5  1  0
  5  6  2  0
  6  7  1  0
  7  8  2  0
  8  9  1  0
  9 10  1  0
 10 11  2  0
 11 12  1  0
 12 13  2  0
 13 14  1  0
 14 15  1  0
 14 16  1  0
 14 17  1  0
 13 18  1  0
 18 19  2  0
  9 20  1  0
 20 21  2  0
 21 22  1  0
 22 23  2  0
 23 24  1  0
 24 25  1  0
 24 26  1  0
 24 27  1  0
 23 28  1  0
 28 29  2  0
  8 30  1  0
 30 31  2  0
 31  5  1  0
 19 10  1  0
 29 20  1  0
M  END
>  <linear_selectivity>  (342) 
43

>  <denticity>  (342) 
1

>  <ligand_class>  (342) 
phosphine

$$$$
P(4-CF3-Ph)3_80C_toluene
     RDKit          2D

 31 33  0  0  0  0  0  0  0  0999 V2000
    7.5000   -0.0000    0.0000 F   0  0  0  0  0  0  0  0  0  0  0  0
    6.0000   -0.0000    0.0000 C   0  0  0  0  0  0  0  0  0  0  0  0
    6.0000   -1.5000    0.0000 F   0  0  0  0  0  0  0  0  0  0  0  0
    6.0000    1.5000    0.0000 F   0  0  0  0  0  0  0  0  0  0  0  0
    4.5000   -0.0000    0.0000 C   0  0  0  0  0  0  0  0  0  0  0  0
    3.7500   -1.2990    0.0000 C   0  0  0  0  0  0  0  0  0  0  0  0
    2.2500   -1.2990    0.0000 C   0  0  0  0  0  0  0  0  0  0  0  0
    1.5000   -0.0000    0.0000 C   0  0  0  0  0  0  0  0  0  0  0  0
    0.0000    0.0000    0.0000 P   0  0  0  0  0  0  0  0  0  0  0  0
   -0.7500    1.2990    0.0000 C   0  0  0  0  0  0  0  0  0  0  0  0
    0.0000    2.5981    0.0000 C   0  0  0  0  0  0  0  0  0  0  0  0
   -0.7500    3.8971    0.0000 C   0  0  0  0  0  0  0  0  0  0  0  0
   -2.2500    3.8971    0.0000 C   0  0  0  0  0  0  0  0  0  0  0  0
   -3.0000    5.1962    0.0000 C   0  0  0  0  0  0  0  0  0  0  0  0
   -3.7500    6.4952    0.0000 F   0  0  0  0  0  0  0  0  0  0  0  0
   -1.7010    5.9462    0.0000 F   0  0  0  0  0  0  0  0  0  0  0  0
   -4.2990    4.4462    0.0000 F   0  0  0  0  0  0  0  0  0  0  0  0
   -3.0000    2.5981    0.0000 C   0  0  0  0  0  0  0  0  0  0  0  0
   -2.2500    1.2990    0.0000 C   0  0  0  0  0  0  0  0  0  0  0  0
   -0.7500   -1.2990    0.0000 C   0  0  0  0  0  0  0  0  0  0  0  0
   -2.2500   -1.2990    0.0000 C   0  0  0  0  0  0  0  0  0  0  0  0
   -3.0000   -2.5981    0.0000 C   0  0  0  0  0  0  0  0  0  0  0  0
   -2.2500   -3.8971    0.0000 C   0  0  0  0  0  0  0  0  0  0  0  0
   -3.0000   -5.1962    0.0000 C   0  0  0  0  0  0  0  0  0  0  0  0
   -3.7500   -6.4952    0.0000 F   0  0  0  0  0  0  0  0  0  0  0  0
   -4.2990   -4.4462    0.0000 F   0  0  0  0  0  0  0  0  0  0  0  0
   -1.7010   -5.9462    0.0000 F   0  0  0  0  0  0  0  0  0  0  0  0
   -0.7500   -3.8971    0.0000 C   0  0  0  0  0  0  0  0  0  0  0  0
   -0.0000   -2.5981    0.0000 C   0  0  0  0  0  0  0  0  0  0  0  0
    2.2500    1.2990    0.0000 C   0  0  0  0  0  0  0  0  0  0  0  0
    3.7500    1.2990    0.0000 C   0  0  0  0  0  0  0  0  0  0  0  0
  1  2  1  0
  2  3  1  0
  2  4  1  0
  2  5  1  0
  5  6  2  0
  6  7  1  0
  7  8  2  0
  8  9  1  0
  9 10  1  0
 10 11  2  0
 11 12  1  0
 12 13  2  0
 13 14  1  0
 14 15  1  0
 14 16  1  0
 14 17  1  0
 13 18  1  0
 18 19  2  0
  9 20  1  0
 20 21  2  0
 21 22  1  0
 22 23  2  0
 23 24  1  0
 24 25  1  0
 24 26  1  0
 24 27  1  0
 23 28  1  0
 28 29  2  0
  8 30  1  0
 30 31  2  0
 31  5  1  0
 19 10  1  0
 29 20  1  0
M  END
>  <linear_selectivity>  (343) 
45

>  <denticity>  (343) 
1

>  <ligand_class>  (343) 
phosphine

$$$$
P(4-CF3-Ph)3_80C_THF
     RDKit          2D

 31 33  0  0  0  0  0  0  0  0999 V2000
    7.5000   -0.0000    0.0000 F   0  0  0  0  0  0  0  0  0  0  0  0
    6.0000   -0.0000    0.0000 C   0  0  0  0  0  0  0  0  0  0  0  0
    6.0000   -1.5000    0.0000 F   0  0  0  0  0  0  0  0  0  0  0  0
    6.0000    1.5000    0.0000 F   0  0  0  0  0  0  0  0  0  0  0  0
    4.5000   -0.0000    0.0000 C   0  0  0  0  0  0  0  0  0  0  0  0
    3.7500   -1.2990    0.0000 C   0  0  0  0  0  0  0  0  0  0  0  0
    2.2500   -1.2990    0.0000 C   0  0  0  0  0  0  0  0  0  0  0  0
    1.5000   -0.0000    0.0000 C   0  0  0  0  0  0  0  0  0  0  0  0
    0.0000    0.0000    0.0000 P   0  0  0  0  0  0  0  0  0  0  0  0
   -0.7500    1.2990    0.0000 C   0  0  0  0  0  0  0  0  0  0  0  0
    0.0000    2.5981    0.0000 C   0  0  0  0  0  0  0  0  0  0  0  0
   -0.7500    3.8971    0.0000 C   0  0  0  0  0  0  0  0  0  0  0  0
   -2.2500    3.8971    0.0000 C   0  0  0  0  0  0  0  0  0  0  0  0
   -3.0000    5.1962    0.0000 C   0  0  0  0  0  0  0  0  0  0  0  0
   -3.7500    6.4952    0.0000 F   0  0  0  0  0  0  0  0  0  0  0  0
   -1.7010    5.9462    0.0000 F   0  0  0  0  0  0  0  0  0  0  0  0
   -4.2990    4.4462    0.0000 F   0  0  0  0  0  0  0  0  0  0  0  0
   -3.0000    2.5981    0.0000 C   0  0  0  0  0  0  0  0  0  0  0  0
   -2.2500    1.2990    0.0000 C   0  0  0  0  0  0  0  0  0  0  0  0
   -0.7500   -1.2990    0.0000 C   0  0  0  0  0  0  0  0  0  0  0  0
   -2.2500   -1.2990    0.0000 C   0  0  0  0  0  0  0  0  0  0  0  0
   -3.0000   -2.5981    0.0000 C   0  0  0  0  0  0  0  0  0  0  0  0
   -2.2500   -3.8971    0.0000 C   0  0  0  0  0  0  0  0  0  0  0  0
   -3.0000   -5.1962    0.0000 C   0  0  0  0  0  0  0  0  0  0  0  0
   -3.7500   -6.4952    0.0000 F   0  0  0  0  0  0  0  0  0  0  0  0
   -4.2990   -4.4462    0.0000 F   0  0  0  0  0  0  0  0  0  0  0  0
   -1.7010   -5.9462    0.0000 F   0  0  0  0  0  0  0  0  0  0  0  0
   -0.7500   -3.8971    0.0000 C   0  0  0  0  0  0  0  0  0  0  0  0
   -0.0000   -2.5981    0.0000 C   0  0  0  0  0  0  0  0  0  0  0  0
    2.2500    1.2990    0.0000 C   0  0  0  0  0  0  0  0  0  0  0  0
    3.7500    1.2990    0.0000 C   0  0  0  0  0  0  0  0  0  0  0  0
  1  2  1  0
  2  3  1  0
  2  4  1  0
  2  5  1  0
  5  6  2  0
  6  7  1  0
  7  8  2  0
  8  9  1  0
  9 10  1  0
 10 11  2  0
 11 12  1  0
 12 13  2  0
 13 14  1  0
 14 15  1  0
 14 16  1  0
 14 17  1  0
 13 18  1  0
 18 19  2  0
  9 20  1  0
 20 21  2  0
 21 22  1  0
 22 23  2  0
 23 24  1  0
 24 25  1  0
 24 26  1  0
 24 27  1  0
 23 28  1  0
 28 29  2  0
  8 30  1  0
 30 31  2  0
 31  5  1  0
 19 10  1  0
 29 20  1  0
M  END
>  <linear_selectivity>  (344) 
40

>  <denticity>  (344) 
1

>  <ligand_class>  (344) 
phosphine

$$$$
P(4-CF3-Ph)3_80C_hexane
     RDKit          2D

 31 33  0  0  0  0  0  0  0  0999 V2000
    7.5000   -0.0000    0.0000 F   0  0  0  0  0  0  0  0  0  0  0  0
    6.0000   -0.0000    0.0000 C   0  0  0  0  0  0  0  0  0  0  0  0
    6.0000   -1.5000    0.0000 F   0  0  0  0  0  0  0  0  0  0  0  0
    6.0000    1.5000    0.0000 F   0  0  0  0  0  0  0  0  0  0  0  0
    4.5000   -0.0000    0.0000 C   0  0  0  0  0  0  0  0  0  0  0  0
    3.7500   -1.2990    0.0000 C   0  0  0  0  0  0  0  0  0  0  0  0
    2.2500   -1.2990    0.0000 C   0  0  0  0  0  0  0  0  0  0  0  0
    1.5000   -0.0000    0.0000 C   0  0  0  0  0  0  0  0  0  0  0  0
    0.0000    0.0000    0.0000 P   0  0  0  0  0  0  0  0  0  0  0  0
   -0.7500    1.2990    0.0000 C   0  0  0  0  0  0  0  0  0  0  0  0
    0.0000    2.5981    0.0000 C   0  0  0  0  0  0  0  0  0  0  0  0
   -0.7500    3.8971    0.0000 C   0  0  0  0  0  0  0  0  0  0  0  0
   -2.2500    3.8971    0.0000 C   0  0  0  0  0  0  0  0  0  0  0  0
   -3.0000    5.1962    0.0000 C   0  0  0  0  0  0  0  0  0  0  0  0
   -3.7500    6.4952    0.0000 F   0  0  0  0  0  0  0  0  0  0  0  0
   -1.7010    5.9462    0.0000 F   0  0  0  0  0  0  0  0  0  0  0  0
   -4.2990    4.4462    0.0000 F   0  0  0  0  0  0  0  0  0  0  0  0
   -3.0000    2.5981    0.0000 C   0  0  0  0  0  0  0  0  0  0  0  0
   -2.2500    1.2990    0.0000 C   0  0  0  0  0  0  0  0  0  0  0  0
   -0.7500   -1.2990    0.0000 C   0  0  0  0  0  0  0  0  0  0  0  0
   -2.2500   -1.2990    0.0000 C   0  0  0  0  0  0  0  0  0  0  0  0
   -3.0000   -2.5981    0.0000 C   0  0  0  0  0  0  0  0  0  0  0  0
   -2.2500   -3.8971    0.0000 C   0  0  0  0  0  0  0  0  0  0  0  0
   -3.0000   -5.1962    0.0000 C   0  0  0  0  0  0  0  0  0  0  0  0
   -3.7500   -6.4952    0.0000 F   0  0  0  0  0  0  0  0  0  0  0  0
   -4.2990   -4.4462    0.0000 F   0  0  0  0  0  0  0  0  0  0  0  0
   -1.7010   -5.9462    0.0000 F   0  0  0  0  0  0  0  0  0  0  0  0
   -0.7500   -3.8971    0.0000 C   0  0  0  0  0  0  0  0  0  0  0  0
   -0.0000   -2.5981    0.0000 C   0  0  0  0  0  0  0  0  0  0  0  0
    2.2500    1.2990    0.0000 C   0  0  0  0  0  0  0  0  0  0  0  0
    3.7500    1.2990    0.0000 C   0  0  0  0  0  0  0  0  0  0  0  0
  1  2  1  0
  2  3  1  0
  2  4  1  0
  2  5  1  0
  5  6  2  0
  6  7  1  0
  7  8  2  0
  8  9  1  0
  9 10  1  0
 10 11  2  0
 11 12  1  0
 12 13  2  0
 13 14  1  0
 14 15  1  0
 14 16  1  0
 14 17  1  0
 13 18  1  0
 18 19  2  0
  9 20  1  0
 20 21  2  0
 21 22  1  0
 22 23  2  0
 23 24  1  0
 24 25  1  0
 24 26  1  0
 24 27  1  0
 23 28  1  0
 28 29  2  0
  8 30  1  0
 30 31  2  0
 31  5  1  0
 19 10  1  0
 29 20  1  0
M  END
>  <linear_selectivity>  (345) 
42

>  <denticity>  (345) 
1

>  <ligand_class>  (345) 
phosphine

$$$$
P(4-CF3-Ph)3_80C_benzene
     RDKit          2D

 31 33  0  0  0  0  0  0  0  0999 V2000
    7.5000   -0.0000    0.0000 F   0  0  0  0  0  0  0  0  0  0  0  0
    6.0000   -0.0000    0.0000 C   0  0  0  0  0  0  0  0  0  0  0  0
    6.0000   -1.5000    0.0000 F   0  0  0  0  0  0  0  0  0  0  0  0
    6.0000    1.5000    0.0000 F   0  0  0  0  0  0  0  0  0  0  0  0
    4.5000   -0.0000    0.0000 C   0  0  0  0  0  0  0  0  0  0  0  0
    3.7500   -1.2990    0.0000 C   0  0  0  0  0  0  0  0  0  0  0  0
    2.2500   -1.2990    0.0000 C   0  0  0  0  0  0  0  0  0  0  0  0
    1.5000   -0.0000    0.0000 C   0  0  0  0  0  0  0  0  0  0  0  0
    0.0000    0.0000    0.0000 P   0  0  0  0  0  0  0  0  0  0  0  0
   -0.7500    1.2990    0.0000 C   0  0  0  0  0  0  0  0  0  0  0  0
    0.0000    2.5981    0.0000 C   0  0  0  0  0  0  0  0  0  0  0  0
   -0.7500    3.8971    0.0000 C   0  0  0  0  0  0  0  0  0  0  0  0
   -2.2500    3.8971    0.0000 C   0  0  0  0  0  0  0  0  0  0  0  0
   -3.0000    5.1962    0.0000 C   0  0  0  0  0  0  0  0  0  0  0  0
   -3.7500    6.4952    0.0000 F   0  0  0  0  0  0  0  0  0  0  0  0
   -1.7010    5.9462    0.0000 F   0  0  0  0  0  0  0  0  0  0  0  0
   -4.2990    4.4462    0.0000 F   0  0  0  0  0  0  0  0  0  0  0  0
   -3.0000    2.5981    0.0000 C   0  0  0  0  0  0  0  0  0  0  0  0
   -2.2500    1.2990    0.0000 C   0  0  0  0  0  0  0  0  0  0  0  0
   -0.7500   -1.2990    0.0000 C   0  0  0  0  0  0  0  0  0  0  0  0
   -2.2500   -1.2990    0.0000 C   0  0  0  0  0  0  0  0  0  0  0  0
   -3.0000   -2.5981    0.0000 C   0  0  0  0  0  0  0  0  0  0  0  0
   -2.2500   -3.8971    0.0000 C   0  0  0  0  0  0  0  0  0  0  0  0
   -3.0000   -5.1962    0.0000 C   0  0  0  0  0  0  0  0  0  0  0  0
   -3.7500   -6.4952    0.0000 F   0  0  0  0  0  0  0  0  0  0  0  0
   -4.2990   -4.4462    0.0000 F   0  0  0  0  0  0  0  0  0  0  0  0
   -1.7010   -5.9462    0.0000 F   0  0  0  0  0  0  0  0  0  0  0  0
   -0.7500   -3.8971    0.0000 C   0  0  0  0  0  0  0  0  0  0  0  0
   -0.0000   -2.5981    0.0000 C   0  0  0  0  0  0  0  0  0  0  0  0
    2.2500    1.2990    0.0000 C   0  0  0  0  0  0  0  0  0  0  0  0
    3.7500    1.2990    0.0000 C   0  0  0  0  0  0  0  0  0  0  0  0
  1  2  1  0
  2  3  1  0
  2  4  1  0
  2  5  1  0
  5  6  2  0
  6  7  1  0
  7  8  2  0
  8  9  1  0
  9 10  1  0
 10 11  2  0
 11 12  1  0
 12 13  2  0
 13 14  1  0
 14 15  1  0
 14 16  1  0
 14 17  1  0
 13 18  1  0
 18 19  2  0
  9 20  1  0
 20 21  2  0
 21 22  1  0
 22 23  2  0
 23 24  1  0
 24 25  1  0
 24 26  1  0
 24 27  1  0
 23 28  1  0
 28 29  2  0
  8 30  1  0
 30 31  2  0
 31  5  1  0
 19 10  1  0
 29 20  1  0
M  END
>  <linear_selectivity>  (346) 
45

>  <denticity>  (346) 
1

>  <ligand_class>  (346) 
phosphine

$$$$
P(4-CF3-Ph)3_80C_xylene
     RDKit          2D

 31 33  0  0  0  0  0  0  0  0999 V2000
    7.5000   -0.0000    0.0000 F   0  0  0  0  0  0  0  0  0  0  0  0
    6.0000   -0.0000    0.0000 C   0  0  0  0  0  0  0  0  0  0  0  0
    6.0000   -1.5000    0.0000 F   0  0  0  0  0  0  0  0  0  0  0  0
    6.0000    1.5000    0.0000 F   0  0  0  0  0  0  0  0  0  0  0  0
    4.5000   -0.0000    0.0000 C   0  0  0  0  0  0  0  0  0  0  0  0
    3.7500   -1.2990    0.0000 C   0  0  0  0  0  0  0  0  0  0  0  0
    2.2500   -1.2990    0.0000 C   0  0  0  0  0  0  0  0  0  0  0  0
    1.5000   -0.0000    0.0000 C   0  0  0  0  0  0  0  0  0  0  0  0
    0.0000    0.0000    0.0000 P   0  0  0  0  0  0  0  0  0  0  0  0
   -0.7500    1.2990    0.0000 C   0  0  0  0  0  0  0  0  0  0  0  0
    0.0000    2.5981    0.0000 C   0  0  0  0  0  0  0  0  0  0  0  0
   -0.7500    3.8971    0.0000 C   0  0  0  0  0  0  0  0  0  0  0  0
   -2.2500    3.8971    0.0000 C   0  0  0  0  0  0  0  0  0  0  0  0
   -3.0000    5.1962    0.0000 C   0  0  0  0  0  0  0  0  0  0  0  0
   -3.7500    6.4952    0.0000 F   0  0  0  0  0  0  0  0  0  0  0  0
   -1.7010    5.9462    0.0000 F   0  0  0  0  0  0  0  0  0  0  0  0
   -4.2990    4.4462    0.0000 F   0  0  0  0  0  0  0  0  0  0  0  0
   -3.0000    2.5981    0.0000 C   0  0  0  0  0  0  0  0  0  0  0  0
   -2.2500    1.2990    0.0000 C   0  0  0  0  0  0  0  0  0  0  0  0
   -0.7500   -1.2990    0.0000 C   0  0  0  0  0  0  0  0  0  0  0  0
   -2.2500   -1.2990    0.0000 C   0  0  0  0  0  0  0  0  0  0  0  0
   -3.0000   -2.5981    0.0000 C   0  0  0  0  0  0  0  0  0  0  0  0
   -2.2500   -3.8971    0.0000 C   0  0  0  0  0  0  0  0  0  0  0  0
   -3.0000   -5.1962    0.0000 C   0  0  0  0  0  0  0  0  0  0  0  0
   -3.7500   -6.4952    0.0000 F   0  0  0  0  0  0  0  0  0  0  0  0
   -4.2990   -4.4462    0.0000 F   0  0  0  0  0  0  0  0  0  0  0  0
   -1.7010   -5.9462    0.0000 F   0  0  0  0  0  0  0  0  0  0  0  0
   -0.7500   -3.8971    0.0000 C   0  0  0  0  0  0  0  0  0  0  0  0
   -0.0000   -2.5981    0.0000 C   0  0  0  0  0  0  0  0  0  0  0  0
    2.2500    1.2990    0.0000 C   0  0  0  0  0  0  0  0  0  0  0  0
    3.7500    1.2990    0.0000 C   0  0  0  0  0  0  0  0  0  0  0  0
  1  2  1  0
  2  3  1  0
  2  4  1  0
  2  5  1  0
  5  6  2  0
  6  7  1  0
  7  8  2  0
  8  9  1  0
  9 10  1  0
 10 11  2  0
 11 12  1  0
 12 13  2  0
 13 14  1  0
 14 15  1  0
 14 16  1  0
 14 17  1  0
 13 18  1  0
 18 19  2  0
  9 20  1  0
 20 21  2  0
 21 22  1  0
 22 23  2  0
 23 24  1  0
 24 25  1  0
 24 26  1  0
 24 27  1  0
 23 28  1  0
 28 29  2  0
  8 30  1  0
 30 31  2  0
 31  5  1  0
 19 10  1  0
 29 20  1  0
M  END
>  <linear_selectivity>  (347) 
41

>  <denticity>  (347) 
1

>  <ligand_class>  (347) 
phosphine

$$$$
P(4-CF3-Ph)3_90C_toluene
     RDKit          2D

 31 33  0  0  0  0  0  0  0  0999 V2000
    7.5000   -0.0000    0.0000 F   0  0  0  0  0  0  0  0  0  0  0  0
    6.0000   -0.0000    0.0000 C   0  0  0  0  0  0  0  0  0  0  0  0
    6.0000   -1.5000    0.0000 F   0  0  0  0  0  0  0  0  0  0  0  0
    6.0000    1.5000    0.0000 F   0  0  0  0  0  0  0  0  0  0  0  0
    4.5000   -0.0000    0.0000 C   0  0  0  0  0  0  0  0  0  0  0  0
    3.7500   -1.2990    0.0000 C   0  0  0  0  0  0  0  0  0  0  0  0
    2.2500   -1.2990    0.0000 C   0  0  0  0  0  0  0  0  0  0  0  0
    1.5000   -0.0000    0.0000 C   0  0  0  0  0  0  0  0  0  0  0  0
    0.0000    0.0000    0.0000 P   0  0  0  0  0  0  0  0  0  0  0  0
   -0.7500    1.2990    0.0000 C   0  0  0  0  0  0  0  0  0  0  0  0
    0.0000    2.5981    0.0000 C   0  0  0  0  0  0  0  0  0  0  0  0
   -0.7500    3.8971    0.0000 C   0  0  0  0  0  0  0  0  0  0  0  0
   -2.2500    3.8971    0.0000 C   0  0  0  0  0  0  0  0  0  0  0  0
   -3.0000    5.1962    0.0000 C   0  0  0  0  0  0  0  0  0  0  0  0
   -3.7500    6.4952    0.0000 F   0  0  0  0  0  0  0  0  0  0  0  0
   -1.7010    5.9462    0.0000 F   0  0  0  0  0  0  0  0  0  0  0  0
   -4.2990    4.4462    0.0000 F   0  0  0  0  0  0  0  0  0  0  0  0
   -3.0000    2.5981    0.0000 C   0  0  0  0  0  0  0  0  0  0  0  0
   -2.2500    1.2990    0.0000 C   0  0  0  0  0  0  0  0  0  0  0  0
   -0.7500   -1.2990    0.0000 C   0  0  0  0  0  0  0  0  0  0  0  0
   -2.2500   -1.2990    0.0000 C   0  0  0  0  0  0  0  0  0  0  0  0
   -3.0000   -2.5981    0.0000 C   0  0  0  0  0  0  0  0  0  0  0  0
   -2.2500   -3.8971    0.0000 C   0  0  0  0  0  0  0  0  0  0  0  0
   -3.0000   -5.1962    0.0000 C   0  0  0  0  0  0  0  0  0  0  0  0
   -3.7500   -6.4952    0.0000 F   0  0  0  0  0  0  0  0  0  0  0  0
   -4.2990   -4.4462    0.0000 F   0  0  0  0  0  0  0  0  0  0  0  0
   -1.7010   -5.9462    0.0000 F   0  0  0  0  0  0  0  0  0  0  0  0
   -0.7500   -3.8971    0.0000 C   0  0  0  0  0  0  0  0  0  0  0  0
   -0.0000   -2.5981    0.0000 C   0  0  0  0  0  0  0  0  0  0  0  0
    2.2500    1.2990    0.0000 C   0  0  0  0  0  0  0  0  0  0  0  0
    3.7500    1.2990    0.0000 C   0  0  0  0  0  0  0  0  0  0  0  0
  1  2  1  0
  2  3  1  0
  2  4  1  0
  2  5  1  0
  5  6  2  0
  6  7  1  0
  7  8  2  0
  8  9  1  0
  9 10  1  0
 10 11  2  0
 11 12  1  0
 12 13  2  0
 13 14  1  0
 14 15  1  0
 14 16  1  0
 14 17  1  0
 13 18  1  0
 18 19  2  0
  9 20  1  0
 20 21  2  0
 21 22  1  0
 22 23  2  0
 23 24  1  0
 24 25  1  0
 24 26  1  0
 24 27  1  0
 23 28  1  0
 28 29  2  0
  8 30  1  0
 30 31  2  0
 31  5  1  0
 19 10  1  0
 29 20  1  0
M  END
>  <linear_selectivity>  (348) 
42

>  <denticity>  (348) 
1

>  <ligand_class>  (348) 
phosphine

$$$$
P(4-CF3-Ph)3_90C_THF
     RDKit          2D

 31 33  0  0  0  0  0  0  0  0999 V2000
    7.5000   -0.0000    0.0000 F   0  0  0  0  0  0  0  0  0  0  0  0
    6.0000   -0.0000    0.0000 C   0  0  0  0  0  0  0  0  0  0  0  0
    6.0000   -1.5000    0.0000 F   0  0  0  0  0  0  0  0  0  0  0  0
    6.0000    1.5000    0.0000 F   0  0  0  0  0  0  0  0  0  0  0  0
    4.5000   -0.0000    0.0000 C   0  0  0  0  0  0  0  0  0  0  0  0
    3.7500   -1.2990    0.0000 C   0  0  0  0  0  0  0  0  0  0  0  0
    2.2500   -1.2990    0.0000 C   0  0  0  0  0  0  0  0  0  0  0  0
    1.5000   -0.0000    0.0000 C   0  0  0  0  0  0  0  0  0  0  0  0
    0.0000    0.0000    0.0000 P   0  0  0  0  0  0  0  0  0  0  0  0
   -0.7500    1.2990    0.0000 C   0  0  0  0  0  0  0  0  0  0  0  0
    0.0000    2.5981    0.0000 C   0  0  0  0  0  0  0  0  0  0  0  0
   -0.7500    3.8971    0.0000 C   0  0  0  0  0  0  0  0  0  0  0  0
   -2.2500    3.8971    0.0000 C   0  0  0  0  0  0  0  0  0  0  0  0
   -3.0000    5.1962    0.0000 C   0  0  0  0  0  0  0  0  0  0  0  0
   -3.7500    6.4952    0.0000 F   0  0  0  0  0  0  0  0  0  0  0  0
   -1.7010    5.9462    0.0000 F   0  0  0  0  0  0  0  0  0  0  0  0
   -4.2990    4.4462    0.0000 F   0  0  0  0  0  0  0  0  0  0  0  0
   -3.0000    2.5981    0.0000 C   0  0  0  0  0  0  0  0  0  0  0  0
   -2.2500    1.2990    0.0000 C   0  0  0  0  0  0  0  0  0  0  0  0
   -0.7500   -1.2990    0.0000 C   0  0  0  0  0  0  0  0  0  0  0  0
   -2.2500   -1.2990    0.0000 C   0  0  0  0  0  0  0  0  0  0  0  0
   -3.0000   -2.5981    0.0000 C   0  0  0  0  0  0  0  0  0  0  0  0
   -2.2500   -3.8971    0.0000 C   0  0  0  0  0  0  0  0  0  0  0  0
   -3.0000   -5.1962    0.0000 C   0  0  0  0  0  0  0  0  0  0  0  0
   -3.7500   -6.4952    0.0000 F   0  0  0  0  0  0  0  0  0  0  0  0
   -4.2990   -4.4462    0.0000 F   0  0  0  0  0  0  0  0  0  0  0  0
   -1.7010   -5.9462    0.0000 F   0  0  0  0  0  0  0  0  0  0  0  0
   -0.7500   -3.8971    0.0000 C   0  0  0  0  0  0  0  0  0  0  0  0
   -0.0000   -2.5981    0.0000 C   0  0  0  0  0  0  0  0  0  0  0  0
    2.2500    1.2990    0.0000 C   0  0  0  0  0  0  0  0  0  0  0  0
    3.7500    1.2990    0.0000 C   0  0  0  0  0  0  0  0  0  0  0  0
  1  2  1  0
  2  3  1  0
  2  4  1  0
  2  5  1  0
  5  6  2  0
  6  7  1  0
  7  8  2  0
  8  9  1  0
  9 10  1  0
 10 11  2  0
 11 12  1  0
 12 13  2  0
 13 14  1  0
 14 15  1  0
 14 16  1  0
 14 17  1  0
 13 18  1  0
 18 19  2  0
  9 20  1  0
 20 21  2  0
 21 22  1  0
 22 23  2  0
 23 24  1  0
 24 25  1  0
 24 26  1  0
 24 27  1  0
 23 28  1  0
 28 29  2  0
  8 30  1  0
 30 31  2  0
 31  5  1  0
 19 10  1  0
 29 20  1  0
M  END
>  <linear_selectivity>  (349) 
39

>  <denticity>  (349) 
1

>  <ligand_class>  (349) 
phosphine

$$$$
P(4-CF3-Ph)3_90C_dioxane
     RDKit          2D

 31 33  0  0  0  0  0  0  0  0999 V2000
    7.5000   -0.0000    0.0000 F   0  0  0  0  0  0  0  0  0  0  0  0
    6.0000   -0.0000    0.0000 C   0  0  0  0  0  0  0  0  0  0  0  0
    6.0000   -1.5000    0.0000 F   0  0  0  0  0  0  0  0  0  0  0  0
    6.0000    1.5000    0.0000 F   0  0  0  0  0  0  0  0  0  0  0  0
    4.5000   -0.0000    0.0000 C   0  0  0  0  0  0  0  0  0  0  0  0
    3.7500   -1.2990    0.0000 C   0  0  0  0  0  0  0  0  0  0  0  0
    2.2500   -1.2990    0.0000 C   0  0  0  0  0  0  0  0  0  0  0  0
    1.5000   -0.0000    0.0000 C   0  0  0  0  0  0  0  0  0  0  0  0
    0.0000    0.0000    0.0000 P   0  0  0  0  0  0  0  0  0  0  0  0
   -0.7500    1.2990    0.0000 C   0  0  0  0  0  0  0  0  0  0  0  0
    0.0000    2.5981    0.0000 C   0  0  0  0  0  0  0  0  0  0  0  0
   -0.7500    3.8971    0.0000 C   0  0  0  0  0  0  0  0  0  0  0  0
   -2.2500    3.8971    0.0000 C   0  0  0  0  0  0  0  0  0  0  0  0
   -3.0000    5.1962    0.0000 C   0  0  0  0  0  0  0  0  0  0  0  0
   -3.7500    6.4952    0.0000 F   0  0  0  0  0  0  0  0  0  0  0  0
   -1.7010    5.9462    0.0000 F   0  0  0  0  0  0  0  0  0  0  0  0
   -4.2990    4.4462    0.0000 F   0  0  0  0  0  0  0  0  0  0  0  0
   -3.0000    2.5981    0.0000 C   0  0  0  0  0  0  0  0  0  0  0  0
   -2.2500    1.2990    0.0000 C   0  0  0  0  0  0  0  0  0  0  0  0
   -0.7500   -1.2990    0.0000 C   0  0  0  0  0  0  0  0  0  0  0  0
   -2.2500   -1.2990    0.0000 C   0  0  0  0  0  0  0  0  0  0  0  0
   -3.0000   -2.5981    0.0000 C   0  0  0  0  0  0  0  0  0  0  0  0
   -2.2500   -3.8971    0.0000 C   0  0  0  0  0  0  0  0  0  0  0  0
   -3.0000   -5.1962    0.0000 C   0  0  0  0  0  0  0  0  0  0  0  0
   -3.7500   -6.4952    0.0000 F   0  0  0  0  0  0  0  0  0  0  0  0
   -4.2990   -4.4462    0.0000 F   0  0  0  0  0  0  0  0  0  0  0  0
   -1.7010   -5.9462    0.0000 F   0  0  0  0  0  0  0  0  0  0  0  0
   -0.7500   -3.8971    0.0000 C   0  0  0  0  0  0  0  0  0  0  0  0
   -0.0000   -2.5981    0.0000 C   0  0  0  0  0  0  0  0  0  0  0  0
    2.2500    1.2990    0.0000 C   0  0  0  0  0  0  0  0  0  0  0  0
    3.7500    1.2990    0.0000 C   0  0  0  0  0  0  0  0  0  0  0  0
  1  2  1  0
  2  3  1  0
  2  4  1  0
  2  5  1  0
  5  6  2  0
  6  7  1  0
  7  8  2  0
  8  9  1  0
  9 10  1  0
 10 11  2  0
 11 12  1  0
 12 13  2  0
 13 14  1  0
 14 15  1  0
 14 16  1  0
 14 17  1  0
 13 18  1  0
 18 19  2  0
  9 20  1  0
 20 21  2  0
 21 22  1  0
 22 23  2  0
 23 24  1  0
 24 25  1  0
 24 26  1  0
 24 27  1  0
 23 28  1  0
 28 29  2  0
  8 30  1  0
 30 31  2  0
 31  5  1  0
 19 10  1  0
 29 20  1  0
M  END
>  <linear_selectivity>  (350) 
38

>  <denticity>  (350) 
1

>  <ligand_class>  (350) 
phosphine

$$$$
P(4-CF3-Ph)3_90C_hexane
     RDKit          2D

 31 33  0  0  0  0  0  0  0  0999 V2000
    7.5000   -0.0000    0.0000 F   0  0  0  0  0  0  0  0  0  0  0  0
    6.0000   -0.0000    0.0000 C   0  0  0  0  0  0  0  0  0  0  0  0
    6.0000   -1.5000    0.0000 F   0  0  0  0  0  0  0  0  0  0  0  0
    6.0000    1.5000    0.0000 F   0  0  0  0  0  0  0  0  0  0  0  0
    4.5000   -0.0000    0.0000 C   0  0  0  0  0  0  0  0  0  0  0  0
    3.7500   -1.2990    0.0000 C   0  0  0  0  0  0  0  0  0  0  0  0
    2.2500   -1.2990    0.0000 C   0  0  0  0  0  0  0  0  0  0  0  0
    1.5000   -0.0000    0.0000 C   0  0  0  0  0  0  0  0  0  0  0  0
    0.0000    0.0000    0.0000 P   0  0  0  0  0  0  0  0  0  0  0  0
   -0.7500    1.2990    0.0000 C   0  0  0  0  0  0  0  0  0  0  0  0
    0.0000    2.5981    0.0000 C   0  0  0  0  0  0  0  0  0  0  0  0
   -0.7500    3.8971    0.0000 C   0  0  0  0  0  0  0  0  0  0  0  0
   -2.2500    3.8971    0.0000 C   0  0  0  0  0  0  0  0  0  0  0  0
   -3.0000    5.1962    0.0000 C   0  0  0  0  0  0  0  0  0  0  0  0
   -3.7500    6.4952    0.0000 F   0  0  0  0  0  0  0  0  0  0  0  0
   -1.7010    5.9462    0.0000 F   0  0  0  0  0  0  0  0  0  0  0  0
   -4.2990    4.4462    0.0000 F   0  0  0  0  0  0  0  0  0  0  0  0
   -3.0000    2.5981    0.0000 C   0  0  0  0  0  0  0  0  0  0  0  0
   -2.2500    1.2990    0.0000 C   0  0  0  0  0  0  0  0  0  0  0  0
   -0.7500   -1.2990    0.0000 C   0  0  0  0  0  0  0  0  0  0  0  0
   -2.2500   -1.2990    0.0000 C   0  0  0  0  0  0  0  0  0  0  0  0
   -3.0000   -2.5981    0.0000 C   0  0  0  0  0  0  0  0  0  0  0  0
   -2.2500   -3.8971    0.0000 C   0  0  0  0  0  0  0  0  0  0  0  0
   -3.0000   -5.1962    0.0000 C   0  0  0  0  0  0  0  0  0  0  0  0
   -3.7500   -6.4952    0.0000 F   0  0  0  0  0  0  0  0  0  0  0  0
   -4.2990   -4.4462    0.0000 F   0  0  0  0  0  0  0  0  0  0  0  0
   -1.7010   -5.9462    0.0000 F   0  0  0  0  0  0  0  0  0  0  0  0
   -0.7500   -3.8971    0.0000 C   0  0  0  0  0  0  0  0  0  0  0  0
   -0.0000   -2.5981    0.0000 C   0  0  0  0  0  0  0  0  0  0  0  0
    2.2500    1.2990    0.0000 C   0  0  0  0  0  0  0  0  0  0  0  0
    3.7500    1.2990    0.0000 C   0  0  0  0  0  0  0  0  0  0  0  0
  1  2  1  0
  2  3  1  0
  2  4  1  0
  2  5  1  0
  5  6  2  0
  6  7  1  0
  7  8  2  0
  8  9  1  0
  9 10  1  0
 10 11  2  0
 11 12  1  0
 12 13  2  0
 13 14  1  0
 14 15  1  0
 14 16  1  0
 14 17  1  0
 13 18  1  0
 18 19  2  0
  9 20  1  0
 20 21  2  0
 21 22  1  0
 22 23  2  0
 23 24  1  0
 24 25  1  0
 24 26  1  0
 24 27  1  0
 23 28  1  0
 28 29  2  0
  8 30  1  0
 30 31  2  0
 31  5  1  0
 19 10  1  0
 29 20  1  0
M  END
>  <linear_selectivity>  (351) 
39

>  <denticity>  (351) 
1

>  <ligand_class>  (351) 
phosphine

$$$$
P(4-CF3-Ph)3_90C_benzene
     RDKit          2D

 31 33  0  0  0  0  0  0  0  0999 V2000
    7.5000   -0.0000    0.0000 F   0  0  0  0  0  0  0  0  0  0  0  0
    6.0000   -0.0000    0.0000 C   0  0  0  0  0  0  0  0  0  0  0  0
    6.0000   -1.5000    0.0000 F   0  0  0  0  0  0  0  0  0  0  0  0
    6.0000    1.5000    0.0000 F   0  0  0  0  0  0  0  0  0  0  0  0
    4.5000   -0.0000    0.0000 C   0  0  0  0  0  0  0  0  0  0  0  0
    3.7500   -1.2990    0.0000 C   0  0  0  0  0  0  0  0  0  0  0  0
    2.2500   -1.2990    0.0000 C   0  0  0  0  0  0  0  0  0  0  0  0
    1.5000   -0.0000    0.0000 C   0  0  0  0  0  0  0  0  0  0  0  0
    0.0000    0.0000    0.0000 P   0  0  0  0  0  0  0  0  0  0  0  0
   -0.7500    1.2990    0.0000 C   0  0  0  0  0  0  0  0  0  0  0  0
    0.0000    2.5981    0.0000 C   0  0  0  0  0  0  0  0  0  0  0  0
   -0.7500    3.8971    0.0000 C   0  0  0  0  0  0  0  0  0  0  0  0
   -2.2500    3.8971    0.0000 C   0  0  0  0  0  0  0  0  0  0  0  0
   -3.0000    5.1962    0.0000 C   0  0  0  0  0  0  0  0  0  0  0  0
   -3.7500    6.4952    0.0000 F   0  0  0  0  0  0  0  0  0  0  0  0
   -1.7010    5.9462    0.0000 F   0  0  0  0  0  0  0  0  0  0  0  0
   -4.2990    4.4462    0.0000 F   0  0  0  0  0  0  0  0  0  0  0  0
   -3.0000    2.5981    0.0000 C   0  0  0  0  0  0  0  0  0  0  0  0
   -2.2500    1.2990    0.0000 C   0  0  0  0  0  0  0  0  0  0  0  0
   -0.7500   -1.2990    0.0000 C   0  0  0  0  0  0  0  0  0  0  0  0
   -2.2500   -1.2990    0.0000 C   0  0  0  0  0  0  0  0  0  0  0  0
   -3.0000   -2.5981    0.0000 C   0  0  0  0  0  0  0  0  0  0  0  0
   -2.2500   -3.8971    0.0000 C   0  0  0  0  0  0  0  0  0  0  0  0
   -3.0000   -5.1962    0.0000 C   0  0  0  0  0  0  0  0  0  0  0  0
   -3.7500   -6.4952    0.0000 F   0  0  0  0  0  0  0  0  0  0  0  0
   -4.2990   -4.4462    0.0000 F   0  0  0  0  0  0  0  0  0  0  0  0
   -1.7010   -5.9462    0.0000 F   0  0  0  0  0  0  0  0  0  0  0  0
   -0.7500   -3.8971    0.0000 C   0  0  0  0  0  0  0  0  0  0  0  0
   -0.0000   -2.5981    0.0000 C   0  0  0  0  0  0  0  0  0  0  0  0
    2.2500    1.2990    0.0000 C   0  0  0  0  0  0  0  0  0  0  0  0
    3.7500    1.2990    0.0000 C   0  0  0  0  0  0  0  0  0  0  0  0
  1  2  1  0
  2  3  1  0
  2  4  1  0
  2  5  1  0
  5  6  2  0
  6  7  1  0
  7  8  2  0
  8  9  1  0
  9 10  1  0
 10 11  2  0
 11 12  1  0
 12 13  2  0
 13 14  1  0
 14 15  1  0
 14 16  1  0
 14 17  1  0
 13 18  1  0
 18 19  2  0
  9 20  1  0
 20 21  2  0
 21 22  1  0
 22 23  2  0
 23 24  1  0
 24 25  1  0
 24 26  1  0
 24 27  1  0
 23 28  1  0
 28 29  2  0
  8 30  1  0
 30 31  2  0
 31  5  1  0
 19 10  1  0
 29 20  1  0
M  END
>  <linear_selectivity>  (352) 
37

>  <denticity>  (352) 
1

>  <ligand_class>  (352) 
phosphine

$$$$
P(4-CF3-Ph)3_100C_toluene
     RDKit          2D

 31 33  0  0  0  0  0  0  0  0999 V2000
    7.5000   -0.0000    0.0000 F   0  0  0  0  0  0  0  0  0  0  0  0
    6.0000   -0.0000    0.0000 C   0  0  0  0  0  0  0  0  0  0  0  0
    6.0000   -1.5000    0.0000 F   0  0  0  0  0  0  0  0  0  0  0  0
    6.0000    1.5000    0.0000 F   0  0  0  0  0  0  0  0  0  0  0  0
    4.5000   -0.0000    0.0000 C   0  0  0  0  0  0  0  0  0  0  0  0
    3.7500   -1.2990    0.0000 C   0  0  0  0  0  0  0  0  0  0  0  0
    2.2500   -1.2990    0.0000 C   0  0  0  0  0  0  0  0  0  0  0  0
    1.5000   -0.0000    0.0000 C   0  0  0  0  0  0  0  0  0  0  0  0
    0.0000    0.0000    0.0000 P   0  0  0  0  0  0  0  0  0  0  0  0
   -0.7500    1.2990    0.0000 C   0  0  0  0  0  0  0  0  0  0  0  0
    0.0000    2.5981    0.0000 C   0  0  0  0  0  0  0  0  0  0  0  0
   -0.7500    3.8971    0.0000 C   0  0  0  0  0  0  0  0  0  0  0  0
   -2.2500    3.8971    0.0000 C   0  0  0  0  0  0  0  0  0  0  0  0
   -3.0000    5.1962    0.0000 C   0  0  0  0  0  0  0  0  0  0  0  0
   -3.7500    6.4952    0.0000 F   0  0  0  0  0  0  0  0  0  0  0  0
   -1.7010    5.9462    0.0000 F   0  0  0  0  0  0  0  0  0  0  0  0
   -4.2990    4.4462    0.0000 F   0  0  0  0  0  0  0  0  0  0  0  0
   -3.0000    2.5981    0.0000 C   0  0  0  0  0  0  0  0  0  0  0  0
   -2.2500    1.2990    0.0000 C   0  0  0  0  0  0  0  0  0  0  0  0
   -0.7500   -1.2990    0.0000 C   0  0  0  0  0  0  0  0  0  0  0  0
   -2.2500   -1.2990    0.0000 C   0  0  0  0  0  0  0  0  0  0  0  0
   -3.0000   -2.5981    0.0000 C   0  0  0  0  0  0  0  0  0  0  0  0
   -2.2500   -3.8971    0.0000 C   0  0  0  0  0  0  0  0  0  0  0  0
   -3.0000   -5.1962    0.0000 C   0  0  0  0  0  0  0  0  0  0  0  0
   -3.7500   -6.4952    0.0000 F   0  0  0  0  0  0  0  0  0  0  0  0
   -4.2990   -4.4462    0.0000 F   0  0  0  0  0  0  0  0  0  0  0  0
   -1.7010   -5.9462    0.0000 F   0  0  0  0  0  0  0  0  0  0  0  0
   -0.7500   -3.8971    0.0000 C   0  0  0  0  0  0  0  0  0  0  0  0
   -0.0000   -2.5981    0.0000 C   0  0  0  0  0  0  0  0  0  0  0  0
    2.2500    1.2990    0.0000 C   0  0  0  0  0  0  0  0  0  0  0  0
    3.7500    1.2990    0.0000 C   0  0  0  0  0  0  0  0  0  0  0  0
  1  2  1  0
  2  3  1  0
  2  4  1  0
  2  5  1  0
  5  6  2  0
  6  7  1  0
  7  8  2  0
  8  9  1  0
  9 10  1  0
 10 11  2  0
 11 12  1  0
 12 13  2  0
 13 14  1  0
 14 15  1  0
 14 16  1  0
 14 17  1  0
 13 18  1  0
 18 19  2  0
  9 20  1  0
 20 21  2  0
 21 22  1  0
 22 23  2  0
 23 24  1  0
 24 25  1  0
 24 26  1  0
 24 27  1  0
 23 28  1  0
 28 29  2  0
  8 30  1  0
 30 31  2  0
 31  5  1  0
 19 10  1  0
 29 20  1  0
M  END
>  <linear_selectivity>  (353) 
36

>  <denticity>  (353) 
1

>  <ligand_class>  (353) 
phosphine

$$$$
P(4-CF3-Ph)3_100C_hexane
     RDKit          2D

 31 33  0  0  0  0  0  0  0  0999 V2000
    7.5000   -0.0000    0.0000 F   0  0  0  0  0  0  0  0  0  0  0  0
    6.0000   -0.0000    0.0000 C   0  0  0  0  0  0  0  0  0  0  0  0
    6.0000   -1.5000    0.0000 F   0  0  0  0  0  0  0  0  0  0  0  0
    6.0000    1.5000    0.0000 F   0  0  0  0  0  0  0  0  0  0  0  0
    4.5000   -0.0000    0.0000 C   0  0  0  0  0  0  0  0  0  0  0  0
    3.7500   -1.2990    0.0000 C   0  0  0  0  0  0  0  0  0  0  0  0
    2.2500   -1.2990    0.0000 C   0  0  0  0  0  0  0  0  0  0  0  0
    1.5000   -0.0000    0.0000 C   0  0  0  0  0  0  0  0  0  0  0  0
    0.0000    0.0000    0.0000 P   0  0  0  0  0  0  0  0  0  0  0  0
   -0.7500    1.2990    0.0000 C   0  0  0  0  0  0  0  0  0  0  0  0
    0.0000    2.5981    0.0000 C   0  0  0  0  0  0  0  0  0  0  0  0
   -0.7500    3.8971    0.0000 C   0  0  0  0  0  0  0  0  0  0  0  0
   -2.2500    3.8971    0.0000 C   0  0  0  0  0  0  0  0  0  0  0  0
   -3.0000    5.1962    0.0000 C   0  0  0  0  0  0  0  0  0  0  0  0
   -3.7500    6.4952    0.0000 F   0  0  0  0  0  0  0  0  0  0  0  0
   -1.7010    5.9462    0.0000 F   0  0  0  0  0  0  0  0  0  0  0  0
   -4.2990    4.4462    0.0000 F   0  0  0  0  0  0  0  0  0  0  0  0
   -3.0000    2.5981    0.0000 C   0  0  0  0  0  0  0  0  0  0  0  0
   -2.2500    1.2990    0.0000 C   0  0  0  0  0  0  0  0  0  0  0  0
   -0.7500   -1.2990    0.0000 C   0  0  0  0  0  0  0  0  0  0  0  0
   -2.2500   -1.2990    0.0000 C   0  0  0  0  0  0  0  0  0  0  0  0
   -3.0000   -2.5981    0.0000 C   0  0  0  0  0  0  0  0  0  0  0  0
   -2.2500   -3.8971    0.0000 C   0  0  0  0  0  0  0  0  0  0  0  0
   -3.0000   -5.1962    0.0000 C   0  0  0  0  0  0  0  0  0  0  0  0
   -3.7500   -6.4952    0.0000 F   0  0  0  0  0  0  0  0  0  0  0  0
   -4.2990   -4.4462    0.0000 F   0  0  0  0  0  0  0  0  0  0  0  0
   -1.7010   -5.9462    0.0000 F   0  0  0  0  0  0  0  0  0  0  0  0
   -0.7500   -3.8971    0.0000 C   0  0  0  0  0  0  0  0  0  0  0  0
   -0.0000   -2.5981    0.0000 C   0  0  0  0  0  0  0  0  0  0  0  0
    2.2500    1.2990    0.0000 C   0  0  0  0  0  0  0  0  0  0  0  0
    3.7500    1.2990    0.0000 C   0  0  0  0  0  0  0  0  0  0  0  0
  1  2  1  0
  2  3  1  0
  2  4  1  0
  2  5  1  0
  5  6  2  0
  6  7  1  0
  7  8  2  0
  8  9  1  0
  9 10  1  0
 10 11  2  0
 11 12  1  0
 12 13  2  0
 13 14  1  0
 14 15  1  0
 14 16  1  0
 14 17  1  0
 13 18  1  0
 18 19  2  0
  9 20  1  0
 20 21  2  0
 21 22  1  0
 22 23  2  0
 23 24  1  0
 24 25  1  0
 24 26  1  0
 24 27  1  0
 23 28  1  0
 28 29  2  0
  8 30  1  0
 30 31  2  0
 31  5  1  0
 19 10  1  0
 29 20  1  0
M  END
>  <linear_selectivity>  (354) 
39

>  <denticity>  (354) 
1

>  <ligand_class>  (354) 
phosphine

$$$$
P(4-CF3-Ph)3_100C_benzene
     RDKit          2D

 31 33  0  0  0  0  0  0  0  0999 V2000
    7.5000   -0.0000    0.0000 F   0  0  0  0  0  0  0  0  0  0  0  0
    6.0000   -0.0000    0.0000 C   0  0  0  0  0  0  0  0  0  0  0  0
    6.0000   -1.5000    0.0000 F   0  0  0  0  0  0  0  0  0  0  0  0
    6.0000    1.5000    0.0000 F   0  0  0  0  0  0  0  0  0  0  0  0
    4.5000   -0.0000    0.0000 C   0  0  0  0  0  0  0  0  0  0  0  0
    3.7500   -1.2990    0.0000 C   0  0  0  0  0  0  0  0  0  0  0  0
    2.2500   -1.2990    0.0000 C   0  0  0  0  0  0  0  0  0  0  0  0
    1.5000   -0.0000    0.0000 C   0  0  0  0  0  0  0  0  0  0  0  0
    0.0000    0.0000    0.0000 P   0  0  0  0  0  0  0  0  0  0  0  0
   -0.7500    1.2990    0.0000 C   0  0  0  0  0  0  0  0  0  0  0  0
    0.0000    2.5981    0.0000 C   0  0  0  0  0  0  0  0  0  0  0  0
   -0.7500    3.8971    0.0000 C   0  0  0  0  0  0  0  0  0  0  0  0
   -2.2500    3.8971    0.0000 C   0  0  0  0  0  0  0  0  0  0  0  0
   -3.0000    5.1962    0.0000 C   0  0  0  0  0  0  0  0  0  0  0  0
   -3.7500    6.4952    0.0000 F   0  0  0  0  0  0  0  0  0  0  0  0
   -1.7010    5.9462    0.0000 F   0  0  0  0  0  0  0  0  0  0  0  0
   -4.2990    4.4462    0.0000 F   0  0  0  0  0  0  0  0  0  0  0  0
   -3.0000    2.5981    0.0000 C   0  0  0  0  0  0  0  0  0  0  0  0
   -2.2500    1.2990    0.0000 C   0  0  0  0  0  0  0  0  0  0  0  0
   -0.7500   -1.2990    0.0000 C   0  0  0  0  0  0  0  0  0  0  0  0
   -2.2500   -1.2990    0.0000 C   0  0  0  0  0  0  0  0  0  0  0  0
   -3.0000   -2.5981    0.0000 C   0  0  0  0  0  0  0  0  0  0  0  0
   -2.2500   -3.8971    0.0000 C   0  0  0  0  0  0  0  0  0  0  0  0
   -3.0000   -5.1962    0.0000 C   0  0  0  0  0  0  0  0  0  0  0  0
   -3.7500   -6.4952    0.0000 F   0  0  0  0  0  0  0  0  0  0  0  0
   -4.2990   -4.4462    0.0000 F   0  0  0  0  0  0  0  0  0  0  0  0
   -1.7010   -5.9462    0.0000 F   0  0  0  0  0  0  0  0  0  0  0  0
   -0.7500   -3.8971    0.0000 C   0  0  0  0  0  0  0  0  0  0  0  0
   -0.0000   -2.5981    0.0000 C   0  0  0  0  0  0  0  0  0  0  0  0
    2.2500    1.2990    0.0000 C   0  0  0  0  0  0  0  0  0  0  0  0
    3.7500    1.2990    0.0000 C   0  0  0  0  0  0  0  0  0  0  0  0
  1  2  1  0
  2  3  1  0
  2  4  1  0
  2  5  1  0
  5  6  2  0
  6  7  1  0
  7  8  2  0
  8  9  1  0
  9 10  1  0
 10 11  2  0
 11 12  1  0
 12 13  2  0
 13 14  1  0
 14 15  1  0
 14 16  1  0
 14 17  1  0
 13 18  1  0
 18 19  2  0
  9 20  1  0
 20 21  2  0
 21 22  1  0
 22 23  2  0
 23 24  1  0
 24 25  1  0
 24 26  1  0
 24 27  1  0
 23 28  1  0
 28 29  2  0
  8 30  1  0
 30 31  2  0
 31  5  1  0
 19 10  1  0
 29 20  1  0
M  END
>  <linear_selectivity>  (355) 
39

>  <denticity>  (355) 
1

>  <ligand_class>  (355) 
phosphine

$$$$
P(4-CF3-Ph)3_100C_xylene
     RDKit          2D

 31 33  0  0  0  0  0  0  0  0999 V2000
    7.5000   -0.0000    0.0000 F   0  0  0  0  0  0  0  0  0  0  0  0
    6.0000   -0.0000    0.0000 C   0  0  0  0  0  0  0  0  0  0  0  0
    6.0000   -1.5000    0.0000 F   0  0  0  0  0  0  0  0  0  0  0  0
    6.0000    1.5000    0.0000 F   0  0  0  0  0  0  0  0  0  0  0  0
    4.5000   -0.0000    0.0000 C   0  0  0  0  0  0  0  0  0  0  0  0
    3.7500   -1.2990    0.0000 C   0  0  0  0  0  0  0  0  0  0  0  0
    2.2500   -1.2990    0.0000 C   0  0  0  0  0  0  0  0  0  0  0  0
    1.5000   -0.0000    0.0000 C   0  0  0  0  0  0  0  0  0  0  0  0
    0.0000    0.0000    0.0000 P   0  0  0  0  0  0  0  0  0  0  0  0
   -0.7500    1.2990    0.0000 C   0  0  0  0  0  0  0  0  0  0  0  0
    0.0000    2.5981    0.0000 C   0  0  0  0  0  0  0  0  0  0  0  0
   -0.7500    3.8971    0.0000 C   0  0  0  0  0  0  0  0  0  0  0  0
   -2.2500    3.8971    0.0000 C   0  0  0  0  0  0  0  0  0  0  0  0
   -3.0000    5.1962    0.0000 C   0  0  0  0  0  0  0  0  0  0  0  0
   -3.7500    6.4952    0.0000 F   0  0  0  0  0  0  0  0  0  0  0  0
   -1.7010    5.9462    0.0000 F   0  0  0  0  0  0  0  0  0  0  0  0
   -4.2990    4.4462    0.0000 F   0  0  0  0  0  0  0  0  0  0  0  0
   -3.0000    2.5981    0.0000 C   0  0  0  0  0  0  0  0  0  0  0  0
   -2.2500    1.2990    0.0000 C   0  0  0  0  0  0  0  0  0  0  0  0
   -0.7500   -1.2990    0.0000 C   0  0  0  0  0  0  0  0  0  0  0  0
   -2.2500   -1.2990    0.0000 C   0  0  0  0  0  0  0  0  0  0  0  0
   -3.0000   -2.5981    0.0000 C   0  0  0  0  0  0  0  0  0  0  0  0
   -2.2500   -3.8971    0.0000 C   0  0  0  0  0  0  0  0  0  0  0  0
   -3.0000   -5.1962    0.0000 C   0  0  0  0  0  0  0  0  0  0  0  0
   -3.7500   -6.4952    0.0000 F   0  0  0  0  0  0  0  0  0  0  0  0
   -4.2990   -4.4462    0.0000 F   0  0  0  0  0  0  0  0  0  0  0  0
   -1.7010   -5.9462    0.0000 F   0  0  0  0  0  0  0  0  0  0  0  0
   -0.7500   -3.8971    0.0000 C   0  0  0  0  0  0  0  0  0  0  0  0
   -0.0000   -2.5981    0.0000 C   0  0  0  0  0  0  0  0  0  0  0  0
    2.2500    1.2990    0.0000 C   0  0  0  0  0  0  0  0  0  0  0  0
    3.7500    1.2990    0.0000 C   0  0  0  0  0  0  0  0  0  0  0  0
  1  2  1  0
  2  3  1  0
  2  4  1  0
  2  5  1  0
  5  6  2  0
  6  7  1  0
  7  8  2  0
  8  9  1  0
  9 10  1  0
 10 11  2  0
 11 12  1  0
 12 13  2  0
 13 14  1  0
 14 15  1  0
 14 16  1  0
 14 17  1  0
 13 18  1  0
 18 19  2  0
  9 20  1  0
 20 21  2  0
 21 22  1  0
 22 23  2  0
 23 24  1  0
 24 25  1  0
 24 26  1  0
 24 27  1  0
 23 28  1  0
 28 29  2  0
  8 30  1  0
 30 31  2  0
 31  5  1  0
 19 10  1  0
 29 20  1  0
M  END
>  <linear_selectivity>  (356) 
40

>  <denticity>  (356) 
1

>  <ligand_class>  (356) 
phosphine

$$$$
P(4-CF3-Ph)3_110C_hexane
     RDKit          2D

 31 33  0  0  0  0  0  0  0  0999 V2000
    7.5000   -0.0000    0.0000 F   0  0  0  0  0  0  0  0  0  0  0  0
    6.0000   -0.0000    0.0000 C   0  0  0  0  0  0  0  0  0  0  0  0
    6.0000   -1.5000    0.0000 F   0  0  0  0  0  0  0  0  0  0  0  0
    6.0000    1.5000    0.0000 F   0  0  0  0  0  0  0  0  0  0  0  0
    4.5000   -0.0000    0.0000 C   0  0  0  0  0  0  0  0  0  0  0  0
    3.7500   -1.2990    0.0000 C   0  0  0  0  0  0  0  0  0  0  0  0
    2.2500   -1.2990    0.0000 C   0  0  0  0  0  0  0  0  0  0  0  0
    1.5000   -0.0000    0.0000 C   0  0  0  0  0  0  0  0  0  0  0  0
    0.0000    0.0000    0.0000 P   0  0  0  0  0  0  0  0  0  0  0  0
   -0.7500    1.2990    0.0000 C   0  0  0  0  0  0  0  0  0  0  0  0
    0.0000    2.5981    0.0000 C   0  0  0  0  0  0  0  0  0  0  0  0
   -0.7500    3.8971    0.0000 C   0  0  0  0  0  0  0  0  0  0  0  0
   -2.2500    3.8971    0.0000 C   0  0  0  0  0  0  0  0  0  0  0  0
   -3.0000    5.1962    0.0000 C   0  0  0  0  0  0  0  0  0  0  0  0
   -3.7500    6.4952    0.0000 F   0  0  0  0  0  0  0  0  0  0  0  0
   -1.7010    5.9462    0.0000 F   0  0  0  0  0  0  0  0  0  0  0  0
   -4.2990    4.4462    0.0000 F   0  0  0  0  0  0  0  0  0  0  0  0
   -3.0000    2.5981    0.0000 C   0  0  0  0  0  0  0  0  0  0  0  0
   -2.2500    1.2990    0.0000 C   0  0  0  0  0  0  0  0  0  0  0  0
   -0.7500   -1.2990    0.0000 C   0  0  0  0  0  0  0  0  0  0  0  0
   -2.2500   -1.2990    0.0000 C   0  0  0  0  0  0  0  0  0  0  0  0
   -3.0000   -2.5981    0.0000 C   0  0  0  0  0  0  0  0  0  0  0  0
   -2.2500   -3.8971    0.0000 C   0  0  0  0  0  0  0  0  0  0  0  0
   -3.0000   -5.1962    0.0000 C   0  0  0  0  0  0  0  0  0  0  0  0
   -3.7500   -6.4952    0.0000 F   0  0  0  0  0  0  0  0  0  0  0  0
   -4.2990   -4.4462    0.0000 F   0  0  0  0  0  0  0  0  0  0  0  0
   -1.7010   -5.9462    0.0000 F   0  0  0  0  0  0  0  0  0  0  0  0
   -0.7500   -3.8971    0.0000 C   0  0  0  0  0  0  0  0  0  0  0  0
   -0.0000   -2.5981    0.0000 C   0  0  0  0  0  0  0  0  0  0  0  0
    2.2500    1.2990    0.0000 C   0  0  0  0  0  0  0  0  0  0  0  0
    3.7500    1.2990    0.0000 C   0  0  0  0  0  0  0  0  0  0  0  0
  1  2  1  0
  2  3  1  0
  2  4  1  0
  2  5  1  0
  5  6  2  0
  6  7  1  0
  7  8  2  0
  8  9  1  0
  9 10  1  0
 10 11  2  0
 11 12  1  0
 12 13  2  0
 13 14  1  0
 14 15  1  0
 14 16  1  0
 14 17  1  0
 13 18  1  0
 18 19  2  0
  9 20  1  0
 20 21  2  0
 21 22  1  0
 22 23  2  0
 23 24  1  0
 24 25  1  0
 24 26  1  0
 24 27  1  0
 23 28  1  0
 28 29  2  0
  8 30  1  0
 30 31  2  0
 31  5  1  0
 19 10  1  0
 29 20  1  0
M  END
>  <linear_selectivity>  (357) 
33

>  <denticity>  (357) 
1

>  <ligand_class>  (357) 
phosphine

$$$$
P(4-CF3-Ph)3_110C_benzene
     RDKit          2D

 31 33  0  0  0  0  0  0  0  0999 V2000
    7.5000   -0.0000    0.0000 F   0  0  0  0  0  0  0  0  0  0  0  0
    6.0000   -0.0000    0.0000 C   0  0  0  0  0  0  0  0  0  0  0  0
    6.0000   -1.5000    0.0000 F   0  0  0  0  0  0  0  0  0  0  0  0
    6.0000    1.5000    0.0000 F   0  0  0  0  0  0  0  0  0  0  0  0
    4.5000   -0.0000    0.0000 C   0  0  0  0  0  0  0  0  0  0  0  0
    3.7500   -1.2990    0.0000 C   0  0  0  0  0  0  0  0  0  0  0  0
    2.2500   -1.2990    0.0000 C   0  0  0  0  0  0  0  0  0  0  0  0
    1.5000   -0.0000    0.0000 C   0  0  0  0  0  0  0  0  0  0  0  0
    0.0000    0.0000    0.0000 P   0  0  0  0  0  0  0  0  0  0  0  0
   -0.7500    1.2990    0.0000 C   0  0  0  0  0  0  0  0  0  0  0  0
    0.0000    2.5981    0.0000 C   0  0  0  0  0  0  0  0  0  0  0  0
   -0.7500    3.8971    0.0000 C   0  0  0  0  0  0  0  0  0  0  0  0
   -2.2500    3.8971    0.0000 C   0  0  0  0  0  0  0  0  0  0  0  0
   -3.0000    5.1962    0.0000 C   0  0  0  0  0  0  0  0  0  0  0  0
   -3.7500    6.4952    0.0000 F   0  0  0  0  0  0  0  0  0  0  0  0
   -1.7010    5.9462    0.0000 F   0  0  0  0  0  0  0  0  0  0  0  0
   -4.2990    4.4462    0.0000 F   0  0  0  0  0  0  0  0  0  0  0  0
   -3.0000    2.5981    0.0000 C   0  0  0  0  0  0  0  0  0  0  0  0
   -2.2500    1.2990    0.0000 C   0  0  0  0  0  0  0  0  0  0  0  0
   -0.7500   -1.2990    0.0000 C   0  0  0  0  0  0  0  0  0  0  0  0
   -2.2500   -1.2990    0.0000 C   0  0  0  0  0  0  0  0  0  0  0  0
   -3.0000   -2.5981    0.0000 C   0  0  0  0  0  0  0  0  0  0  0  0
   -2.2500   -3.8971    0.0000 C   0  0  0  0  0  0  0  0  0  0  0  0
   -3.0000   -5.1962    0.0000 C   0  0  0  0  0  0  0  0  0  0  0  0
   -3.7500   -6.4952    0.0000 F   0  0  0  0  0  0  0  0  0  0  0  0
   -4.2990   -4.4462    0.0000 F   0  0  0  0  0  0  0  0  0  0  0  0
   -1.7010   -5.9462    0.0000 F   0  0  0  0  0  0  0  0  0  0  0  0
   -0.7500   -3.8971    0.0000 C   0  0  0  0  0  0  0  0  0  0  0  0
   -0.0000   -2.5981    0.0000 C   0  0  0  0  0  0  0  0  0  0  0  0
    2.2500    1.2990    0.0000 C   0  0  0  0  0  0  0  0  0  0  0  0
    3.7500    1.2990    0.0000 C   0  0  0  0  0  0  0  0  0  0  0  0
  1  2  1  0
  2  3  1  0
  2  4  1  0
  2  5  1  0
  5  6  2  0
  6  7  1  0
  7  8  2  0
  8  9  1  0
  9 10  1  0
 10 11  2  0
 11 12  1  0
 12 13  2  0
 13 14  1  0
 14 15  1  0
 14 16  1  0
 14 17  1  0
 13 18  1  0
 18 19  2  0
  9 20  1  0
 20 21  2  0
 21 22  1  0
 22 23  2  0
 23 24  1  0
 24 25  1  0
 24 26  1  0
 24 27  1  0
 23 28  1  0
 28 29  2  0
  8 30  1  0
 30 31  2  0
 31  5  1  0
 19 10  1  0
 29 20  1  0
M  END
>  <linear_selectivity>  (358) 
34

>  <denticity>  (358) 
1

>  <ligand_class>  (358) 
phosphine

$$$$
P(4-CF3-Ph)3_110C_xylene
     RDKit          2D

 31 33  0  0  0  0  0  0  0  0999 V2000
    7.5000   -0.0000    0.0000 F   0  0  0  0  0  0  0  0  0  0  0  0
    6.0000   -0.0000    0.0000 C   0  0  0  0  0  0  0  0  0  0  0  0
    6.0000   -1.5000    0.0000 F   0  0  0  0  0  0  0  0  0  0  0  0
    6.0000    1.5000    0.0000 F   0  0  0  0  0  0  0  0  0  0  0  0
    4.5000   -0.0000    0.0000 C   0  0  0  0  0  0  0  0  0  0  0  0
    3.7500   -1.2990    0.0000 C   0  0  0  0  0  0  0  0  0  0  0  0
    2.2500   -1.2990    0.0000 C   0  0  0  0  0  0  0  0  0  0  0  0
    1.5000   -0.0000    0.0000 C   0  0  0  0  0  0  0  0  0  0  0  0
    0.0000    0.0000    0.0000 P   0  0  0  0  0  0  0  0  0  0  0  0
   -0.7500    1.2990    0.0000 C   0  0  0  0  0  0  0  0  0  0  0  0
    0.0000    2.5981    0.0000 C   0  0  0  0  0  0  0  0  0  0  0  0
   -0.7500    3.8971    0.0000 C   0  0  0  0  0  0  0  0  0  0  0  0
   -2.2500    3.8971    0.0000 C   0  0  0  0  0  0  0  0  0  0  0  0
   -3.0000    5.1962    0.0000 C   0  0  0  0  0  0  0  0  0  0  0  0
   -3.7500    6.4952    0.0000 F   0  0  0  0  0  0  0  0  0  0  0  0
   -1.7010    5.9462    0.0000 F   0  0  0  0  0  0  0  0  0  0  0  0
   -4.2990    4.4462    0.0000 F   0  0  0  0  0  0  0  0  0  0  0  0
   -3.0000    2.5981    0.0000 C   0  0  0  0  0  0  0  0  0  0  0  0
   -2.2500    1.2990    0.0000 C   0  0  0  0  0  0  0  0  0  0  0  0
   -0.7500   -1.2990    0.0000 C   0  0  0  0  0  0  0  0  0  0  0  0
   -2.2500   -1.2990    0.0000 C   0  0  0  0  0  0  0  0  0  0  0  0
   -3.0000   -2.5981    0.0000 C   0  0  0  0  0  0  0  0  0  0  0  0
   -2.2500   -3.8971    0.0000 C   0  0  0  0  0  0  0  0  0  0  0  0
   -3.0000   -5.1962    0.0000 C   0  0  0  0  0  0  0  0  0  0  0  0
   -3.7500   -6.4952    0.0000 F   0  0  0  0  0  0  0  0  0  0  0  0
   -4.2990   -4.4462    0.0000 F   0  0  0  0  0  0  0  0  0  0  0  0
   -1.7010   -5.9462    0.0000 F   0  0  0  0  0  0  0  0  0  0  0  0
   -0.7500   -3.8971    0.0000 C   0  0  0  0  0  0  0  0  0  0  0  0
   -0.0000   -2.5981    0.0000 C   0  0  0  0  0  0  0  0  0  0  0  0
    2.2500    1.2990    0.0000 C   0  0  0  0  0  0  0  0  0  0  0  0
    3.7500    1.2990    0.0000 C   0  0  0  0  0  0  0  0  0  0  0  0
  1  2  1  0
  2  3  1  0
  2  4  1  0
  2  5  1  0
  5  6  2  0
  6  7  1  0
  7  8  2  0
  8  9  1  0
  9 10  1  0
 10 11  2  0
 11 12  1  0
 12 13  2  0
 13 14  1  0
 14 15  1  0
 14 16  1  0
 14 17  1  0
 13 18  1  0
 18 19  2  0
  9 20  1  0
 20 21  2  0
 21 22  1  0
 22 23  2  0
 23 24  1  0
 24 25  1  0
 24 26  1  0
 24 27  1  0
 23 28  1  0
 28 29  2  0
  8 30  1  0
 30 31  2  0
 31  5  1  0
 19 10  1  0
 29 20  1  0
M  END
>  <linear_selectivity>  (359) 
42

>  <denticity>  (359) 
1

>  <ligand_class>  (359) 
phosphine

$$$$
P(4-CF3-Ph)3_120C_toluene
     RDKit          2D

 31 33  0  0  0  0  0  0  0  0999 V2000
    7.5000   -0.0000    0.0000 F   0  0  0  0  0  0  0  0  0  0  0  0
    6.0000   -0.0000    0.0000 C   0  0  0  0  0  0  0  0  0  0  0  0
    6.0000   -1.5000    0.0000 F   0  0  0  0  0  0  0  0  0  0  0  0
    6.0000    1.5000    0.0000 F   0  0  0  0  0  0  0  0  0  0  0  0
    4.5000   -0.0000    0.0000 C   0  0  0  0  0  0  0  0  0  0  0  0
    3.7500   -1.2990    0.0000 C   0  0  0  0  0  0  0  0  0  0  0  0
    2.2500   -1.2990    0.0000 C   0  0  0  0  0  0  0  0  0  0  0  0
    1.5000   -0.0000    0.0000 C   0  0  0  0  0  0  0  0  0  0  0  0
    0.0000    0.0000    0.0000 P   0  0  0  0  0  0  0  0  0  0  0  0
   -0.7500    1.2990    0.0000 C   0  0  0  0  0  0  0  0  0  0  0  0
    0.0000    2.5981    0.0000 C   0  0  0  0  0  0  0  0  0  0  0  0
   -0.7500    3.8971    0.0000 C   0  0  0  0  0  0  0  0  0  0  0  0
   -2.2500    3.8971    0.0000 C   0  0  0  0  0  0  0  0  0  0  0  0
   -3.0000    5.1962    0.0000 C   0  0  0  0  0  0  0  0  0  0  0  0
   -3.7500    6.4952    0.0000 F   0  0  0  0  0  0  0  0  0  0  0  0
   -1.7010    5.9462    0.0000 F   0  0  0  0  0  0  0  0  0  0  0  0
   -4.2990    4.4462    0.0000 F   0  0  0  0  0  0  0  0  0  0  0  0
   -3.0000    2.5981    0.0000 C   0  0  0  0  0  0  0  0  0  0  0  0
   -2.2500    1.2990    0.0000 C   0  0  0  0  0  0  0  0  0  0  0  0
   -0.7500   -1.2990    0.0000 C   0  0  0  0  0  0  0  0  0  0  0  0
   -2.2500   -1.2990    0.0000 C   0  0  0  0  0  0  0  0  0  0  0  0
   -3.0000   -2.5981    0.0000 C   0  0  0  0  0  0  0  0  0  0  0  0
   -2.2500   -3.8971    0.0000 C   0  0  0  0  0  0  0  0  0  0  0  0
   -3.0000   -5.1962    0.0000 C   0  0  0  0  0  0  0  0  0  0  0  0
   -3.7500   -6.4952    0.0000 F   0  0  0  0  0  0  0  0  0  0  0  0
   -4.2990   -4.4462    0.0000 F   0  0  0  0  0  0  0  0  0  0  0  0
   -1.7010   -5.9462    0.0000 F   0  0  0  0  0  0  0  0  0  0  0  0
   -0.7500   -3.8971    0.0000 C   0  0  0  0  0  0  0  0  0  0  0  0
   -0.0000   -2.5981    0.0000 C   0  0  0  0  0  0  0  0  0  0  0  0
    2.2500    1.2990    0.0000 C   0  0  0  0  0  0  0  0  0  0  0  0
    3.7500    1.2990    0.0000 C   0  0  0  0  0  0  0  0  0  0  0  0
  1  2  1  0
  2  3  1  0
  2  4  1  0
  2  5  1  0
  5  6  2  0
  6  7  1  0
  7  8  2  0
  8  9  1  0
  9 10  1  0
 10 11  2  0
 11 12  1  0
 12 13  2  0
 13 14  1  0
 14 15  1  0
 14 16  1  0
 14 17  1  0
 13 18  1  0
 18 19  2  0
  9 20  1  0
 20 21  2  0
 21 22  1  0
 22 23  2  0
 23 24  1  0
 24 25  1  0
 24 26  1  0
 24 27  1  0
 23 28  1  0
 28 29  2  0
  8 30  1  0
 30 31  2  0
 31  5  1  0
 19 10  1  0
 29 20  1  0
M  END
>  <linear_selectivity>  (360) 
31

>  <denticity>  (360) 
1

>  <ligand_class>  (360) 
phosphine

$$$$
P(4-CF3-Ph)3_120C_THF
     RDKit          2D

 31 33  0  0  0  0  0  0  0  0999 V2000
    7.5000   -0.0000    0.0000 F   0  0  0  0  0  0  0  0  0  0  0  0
    6.0000   -0.0000    0.0000 C   0  0  0  0  0  0  0  0  0  0  0  0
    6.0000   -1.5000    0.0000 F   0  0  0  0  0  0  0  0  0  0  0  0
    6.0000    1.5000    0.0000 F   0  0  0  0  0  0  0  0  0  0  0  0
    4.5000   -0.0000    0.0000 C   0  0  0  0  0  0  0  0  0  0  0  0
    3.7500   -1.2990    0.0000 C   0  0  0  0  0  0  0  0  0  0  0  0
    2.2500   -1.2990    0.0000 C   0  0  0  0  0  0  0  0  0  0  0  0
    1.5000   -0.0000    0.0000 C   0  0  0  0  0  0  0  0  0  0  0  0
    0.0000    0.0000    0.0000 P   0  0  0  0  0  0  0  0  0  0  0  0
   -0.7500    1.2990    0.0000 C   0  0  0  0  0  0  0  0  0  0  0  0
    0.0000    2.5981    0.0000 C   0  0  0  0  0  0  0  0  0  0  0  0
   -0.7500    3.8971    0.0000 C   0  0  0  0  0  0  0  0  0  0  0  0
   -2.2500    3.8971    0.0000 C   0  0  0  0  0  0  0  0  0  0  0  0
   -3.0000    5.1962    0.0000 C   0  0  0  0  0  0  0  0  0  0  0  0
   -3.7500    6.4952    0.0000 F   0  0  0  0  0  0  0  0  0  0  0  0
   -1.7010    5.9462    0.0000 F   0  0  0  0  0  0  0  0  0  0  0  0
   -4.2990    4.4462    0.0000 F   0  0  0  0  0  0  0  0  0  0  0  0
   -3.0000    2.5981    0.0000 C   0  0  0  0  0  0  0  0  0  0  0  0
   -2.2500    1.2990    0.0000 C   0  0  0  0  0  0  0  0  0  0  0  0
   -0.7500   -1.2990    0.0000 C   0  0  0  0  0  0  0  0  0  0  0  0
   -2.2500   -1.2990    0.0000 C   0  0  0  0  0  0  0  0  0  0  0  0
   -3.0000   -2.5981    0.0000 C   0  0  0  0  0  0  0  0  0  0  0  0
   -2.2500   -3.8971    0.0000 C   0  0  0  0  0  0  0  0  0  0  0  0
   -3.0000   -5.1962    0.0000 C   0  0  0  0  0  0  0  0  0  0  0  0
   -3.7500   -6.4952    0.0000 F   0  0  0  0  0  0  0  0  0  0  0  0
   -4.2990   -4.4462    0.0000 F   0  0  0  0  0  0  0  0  0  0  0  0
   -1.7010   -5.9462    0.0000 F   0  0  0  0  0  0  0  0  0  0  0  0
   -0.7500   -3.8971    0.0000 C   0  0  0  0  0  0  0  0  0  0  0  0
   -0.0000   -2.5981    0.0000 C   0  0  0  0  0  0  0  0  0  0  0  0
    2.2500    1.2990    0.0000 C   0  0  0  0  0  0  0  0  0  0  0  0
    3.7500    1.2990    0.0000 C   0  0  0  0  0  0  0  0  0  0  0  0
  1  2  1  0
  2  3  1  0
  2  4  1  0
  2  5  1  0
  5  6  2  0
  6  7  1  0
  7  8  2  0
  8  9  1  0
  9 10  1  0
 10 11  2  0
 11 12  1  0
 12 13  2  0
 13 14  1  0
 14 15  1  0
 14 16  1  0
 14 17  1  0
 13 18  1  0
 18 19  2  0
  9 20  1  0
 20 21  2  0
 21 22  1  0
 22 23  2  0
 23 24  1  0
 24 25  1  0
 24 26  1  0
 24 27  1  0
 23 28  1  0
 28 29  2  0
  8 30  1  0
 30 31  2  0
 31  5  1  0
 19 10  1  0
 29 20  1  0
M  END
>  <linear_selectivity>  (361) 
31

>  <denticity>  (361) 
1

>  <ligand_class>  (361) 
phosphine

$$$$
P(4-CF3-Ph)3_120C_benzene
     RDKit          2D

 31 33  0  0  0  0  0  0  0  0999 V2000
    7.5000   -0.0000    0.0000 F   0  0  0  0  0  0  0  0  0  0  0  0
    6.0000   -0.0000    0.0000 C   0  0  0  0  0  0  0  0  0  0  0  0
    6.0000   -1.5000    0.0000 F   0  0  0  0  0  0  0  0  0  0  0  0
    6.0000    1.5000    0.0000 F   0  0  0  0  0  0  0  0  0  0  0  0
    4.5000   -0.0000    0.0000 C   0  0  0  0  0  0  0  0  0  0  0  0
    3.7500   -1.2990    0.0000 C   0  0  0  0  0  0  0  0  0  0  0  0
    2.2500   -1.2990    0.0000 C   0  0  0  0  0  0  0  0  0  0  0  0
    1.5000   -0.0000    0.0000 C   0  0  0  0  0  0  0  0  0  0  0  0
    0.0000    0.0000    0.0000 P   0  0  0  0  0  0  0  0  0  0  0  0
   -0.7500    1.2990    0.0000 C   0  0  0  0  0  0  0  0  0  0  0  0
    0.0000    2.5981    0.0000 C   0  0  0  0  0  0  0  0  0  0  0  0
   -0.7500    3.8971    0.0000 C   0  0  0  0  0  0  0  0  0  0  0  0
   -2.2500    3.8971    0.0000 C   0  0  0  0  0  0  0  0  0  0  0  0
   -3.0000    5.1962    0.0000 C   0  0  0  0  0  0  0  0  0  0  0  0
   -3.7500    6.4952    0.0000 F   0  0  0  0  0  0  0  0  0  0  0  0
   -1.7010    5.9462    0.0000 F   0  0  0  0  0  0  0  0  0  0  0  0
   -4.2990    4.4462    0.0000 F   0  0  0  0  0  0  0  0  0  0  0  0
   -3.0000    2.5981    0.0000 C   0  0  0  0  0  0  0  0  0  0  0  0
   -2.2500    1.2990    0.0000 C   0  0  0  0  0  0  0  0  0  0  0  0
   -0.7500   -1.2990    0.0000 C   0  0  0  0  0  0  0  0  0  0  0  0
   -2.2500   -1.2990    0.0000 C   0  0  0  0  0  0  0  0  0  0  0  0
   -3.0000   -2.5981    0.0000 C   0  0  0  0  0  0  0  0  0  0  0  0
   -2.2500   -3.8971    0.0000 C   0  0  0  0  0  0  0  0  0  0  0  0
   -3.0000   -5.1962    0.0000 C   0  0  0  0  0  0  0  0  0  0  0  0
   -3.7500   -6.4952    0.0000 F   0  0  0  0  0  0  0  0  0  0  0  0
   -4.2990   -4.4462    0.0000 F   0  0  0  0  0  0  0  0  0  0  0  0
   -1.7010   -5.9462    0.0000 F   0  0  0  0  0  0  0  0  0  0  0  0
   -0.7500   -3.8971    0.0000 C   0  0  0  0  0  0  0  0  0  0  0  0
   -0.0000   -2.5981    0.0000 C   0  0  0  0  0  0  0  0  0  0  0  0
    2.2500    1.2990    0.0000 C   0  0  0  0  0  0  0  0  0  0  0  0
    3.7500    1.2990    0.0000 C   0  0  0  0  0  0  0  0  0  0  0  0
  1  2  1  0
  2  3  1  0
  2  4  1  0
  2  5  1  0
  5  6  2  0
  6  7  1  0
  7  8  2  0
  8  9  1  0
  9 10  1  0
 10 11  2  0
 11 12  1  0
 12 13  2  0
 13 14  1  0
 14 15  1  0
 14 16  1  0
 14 17  1  0
 13 18  1  0
 18 19  2  0
  9 20  1  0
 20 21  2  0
 21 22  1  0
 22 23  2  0
 23 24  1  0
 24 25  1  0
 24 26  1  0
 24 27  1  0
 23 28  1  0
 28 29  2  0
  8 30  1  0
 30 31  2  0
 31  5  1  0
 19 10  1  0
 29 20  1  0
M  END
>  <linear_selectivity>  (362) 
31

>  <denticity>  (362) 
1

>  <ligand_class>  (362) 
phosphine

$$$$
P(4-CF3-Ph)3_120C_xylene
     RDKit          2D

 31 33  0  0  0  0  0  0  0  0999 V2000
    7.5000   -0.0000    0.0000 F   0  0  0  0  0  0  0  0  0  0  0  0
    6.0000   -0.0000    0.0000 C   0  0  0  0  0  0  0  0  0  0  0  0
    6.0000   -1.5000    0.0000 F   0  0  0  0  0  0  0  0  0  0  0  0
    6.0000    1.5000    0.0000 F   0  0  0  0  0  0  0  0  0  0  0  0
    4.5000   -0.0000    0.0000 C   0  0  0  0  0  0  0  0  0  0  0  0
    3.7500   -1.2990    0.0000 C   0  0  0  0  0  0  0  0  0  0  0  0
    2.2500   -1.2990    0.0000 C   0  0  0  0  0  0  0  0  0  0  0  0
    1.5000   -0.0000    0.0000 C   0  0  0  0  0  0  0  0  0  0  0  0
    0.0000    0.0000    0.0000 P   0  0  0  0  0  0  0  0  0  0  0  0
   -0.7500    1.2990    0.0000 C   0  0  0  0  0  0  0  0  0  0  0  0
    0.0000    2.5981    0.0000 C   0  0  0  0  0  0  0  0  0  0  0  0
   -0.7500    3.8971    0.0000 C   0  0  0  0  0  0  0  0  0  0  0  0
   -2.2500    3.8971    0.0000 C   0  0  0  0  0  0  0  0  0  0  0  0
   -3.0000    5.1962    0.0000 C   0  0  0  0  0  0  0  0  0  0  0  0
   -3.7500    6.4952    0.0000 F   0  0  0  0  0  0  0  0  0  0  0  0
   -1.7010    5.9462    0.0000 F   0  0  0  0  0  0  0  0  0  0  0  0
   -4.2990    4.4462    0.0000 F   0  0  0  0  0  0  0  0  0  0  0  0
   -3.0000    2.5981    0.0000 C   0  0  0  0  0  0  0  0  0  0  0  0
   -2.2500    1.2990    0.0000 C   0  0  0  0  0  0  0  0  0  0  0  0
   -0.7500   -1.2990    0.0000 C   0  0  0  0  0  0  0  0  0  0  0  0
   -2.2500   -1.2990    0.0000 C   0  0  0  0  0  0  0  0  0  0  0  0
   -3.0000   -2.5981    0.0000 C   0  0  0  0  0  0  0  0  0  0  0  0
   -2.2500   -3.8971    0.0000 C   0  0  0  0  0  0  0  0  0  0  0  0
   -3.0000   -5.1962    0.0000 C   0  0  0  0  0  0  0  0  0  0  0  0
   -3.7500   -6.4952    0.0000 F   0  0  0  0  0  0  0  0  0  0  0  0
   -4.2990   -4.4462    0.0000 F   0  0  0  0  0  0  0  0  0  0  0  0
   -1.7010   -5.9462    0.0000 F   0  0  0  0  0  0  0  0  0  0  0  0
   -0.7500   -3.8971    0.0000 C   0  0  0  0  0  0  0  0  0  0  0  0
   -0.0000   -2.5981    0.0000 C   0  0  0  0  0  0  0  0  0  0  0  0
    2.2500    1.2990    0.0000 C   0  0  0  0  0  0  0  0  0  0  0  0
    3.7500    1.2990    0.0000 C   0  0  0  0  0  0  0  0  0  0  0  0
  1  2  1  0
  2  3  1  0
  2  4  1  0
  2  5  1  0
  5  6  2  0
  6  7  1  0
  7  8  2  0
  8  9  1  0
  9 10  1  0
 10 11  2  0
 11 12  1  0
 12 13  2  0
 13 14  1  0
 14 15  1  0
 14 16  1  0
 14 17  1  0
 13 18  1  0
 18 19  2  0
  9 20  1  0
 20 21  2  0
 21 22  1  0
 22 23  2  0
 23 24  1  0
 24 25  1  0
 24 26  1  0
 24 27  1  0
 23 28  1  0
 28 29  2  0
  8 30  1  0
 30 31  2  0
 31  5  1  0
 19 10  1  0
 29 20  1  0
M  END
>  <linear_selectivity>  (363) 
35

>  <denticity>  (363) 
1

>  <ligand_class>  (363) 
phosphine

$$$$
P(4-CF3-Ph)3_130C_toluene
     RDKit          2D

 31 33  0  0  0  0  0  0  0  0999 V2000
    7.5000   -0.0000    0.0000 F   0  0  0  0  0  0  0  0  0  0  0  0
    6.0000   -0.0000    0.0000 C   0  0  0  0  0  0  0  0  0  0  0  0
    6.0000   -1.5000    0.0000 F   0  0  0  0  0  0  0  0  0  0  0  0
    6.0000    1.5000    0.0000 F   0  0  0  0  0  0  0  0  0  0  0  0
    4.5000   -0.0000    0.0000 C   0  0  0  0  0  0  0  0  0  0  0  0
    3.7500   -1.2990    0.0000 C   0  0  0  0  0  0  0  0  0  0  0  0
    2.2500   -1.2990    0.0000 C   0  0  0  0  0  0  0  0  0  0  0  0
    1.5000   -0.0000    0.0000 C   0  0  0  0  0  0  0  0  0  0  0  0
    0.0000    0.0000    0.0000 P   0  0  0  0  0  0  0  0  0  0  0  0
   -0.7500    1.2990    0.0000 C   0  0  0  0  0  0  0  0  0  0  0  0
    0.0000    2.5981    0.0000 C   0  0  0  0  0  0  0  0  0  0  0  0
   -0.7500    3.8971    0.0000 C   0  0  0  0  0  0  0  0  0  0  0  0
   -2.2500    3.8971    0.0000 C   0  0  0  0  0  0  0  0  0  0  0  0
   -3.0000    5.1962    0.0000 C   0  0  0  0  0  0  0  0  0  0  0  0
   -3.7500    6.4952    0.0000 F   0  0  0  0  0  0  0  0  0  0  0  0
   -1.7010    5.9462    0.0000 F   0  0  0  0  0  0  0  0  0  0  0  0
   -4.2990    4.4462    0.0000 F   0  0  0  0  0  0  0  0  0  0  0  0
   -3.0000    2.5981    0.0000 C   0  0  0  0  0  0  0  0  0  0  0  0
   -2.2500    1.2990    0.0000 C   0  0  0  0  0  0  0  0  0  0  0  0
   -0.7500   -1.2990    0.0000 C   0  0  0  0  0  0  0  0  0  0  0  0
   -2.2500   -1.2990    0.0000 C   0  0  0  0  0  0  0  0  0  0  0  0
   -3.0000   -2.5981    0.0000 C   0  0  0  0  0  0  0  0  0  0  0  0
   -2.2500   -3.8971    0.0000 C   0  0  0  0  0  0  0  0  0  0  0  0
   -3.0000   -5.1962    0.0000 C   0  0  0  0  0  0  0  0  0  0  0  0
   -3.7500   -6.4952    0.0000 F   0  0  0  0  0  0  0  0  0  0  0  0
   -4.2990   -4.4462    0.0000 F   0  0  0  0  0  0  0  0  0  0  0  0
   -1.7010   -5.9462    0.0000 F   0  0  0  0  0  0  0  0  0  0  0  0
   -0.7500   -3.8971    0.0000 C   0  0  0  0  0  0  0  0  0  0  0  0
   -0.0000   -2.5981    0.0000 C   0  0  0  0  0  0  0  0  0  0  0  0
    2.2500    1.2990    0.0000 C   0  0  0  0  0  0  0  0  0  0  0  0
    3.7500    1.2990    0.0000 C   0  0  0  0  0  0  0  0  0  0  0  0
  1  2  1  0
  2  3  1  0
  2  4  1  0
  2  5  1  0
  5  6  2  0
  6  7  1  0
  7  8  2  0
  8  9  1  0
  9 10  1  0
 10 11  2  0
 11 12  1  0
 12 13  2  0
 13 14  1  0
 14 15  1  0
 14 16  1  0
 14 17  1  0
 13 18  1  0
 18 19  2  0
  9 20  1  0
 20 21  2  0
 21 22  1  0
 22 23  2  0
 23 24  1  0
 24 25  1  0
 24 26  1  0
 24 27  1  0
 23 28  1  0
 28 29  2  0
  8 30  1  0
 30 31  2  0
 31  5  1  0
 19 10  1  0
 29 20  1  0
M  END
>  <linear_selectivity>  (364) 
32

>  <denticity>  (364) 
1

>  <ligand_class>  (364) 
phosphine

$$$$
P(4-CF3-Ph)3_130C_dioxane
     RDKit          2D

 31 33  0  0  0  0  0  0  0  0999 V2000
    7.5000   -0.0000    0.0000 F   0  0  0  0  0  0  0  0  0  0  0  0
    6.0000   -0.0000    0.0000 C   0  0  0  0  0  0  0  0  0  0  0  0
    6.0000   -1.5000    0.0000 F   0  0  0  0  0  0  0  0  0  0  0  0
    6.0000    1.5000    0.0000 F   0  0  0  0  0  0  0  0  0  0  0  0
    4.5000   -0.0000    0.0000 C   0  0  0  0  0  0  0  0  0  0  0  0
    3.7500   -1.2990    0.0000 C   0  0  0  0  0  0  0  0  0  0  0  0
    2.2500   -1.2990    0.0000 C   0  0  0  0  0  0  0  0  0  0  0  0
    1.5000   -0.0000    0.0000 C   0  0  0  0  0  0  0  0  0  0  0  0
    0.0000    0.0000    0.0000 P   0  0  0  0  0  0  0  0  0  0  0  0
   -0.7500    1.2990    0.0000 C   0  0  0  0  0  0  0  0  0  0  0  0
    0.0000    2.5981    0.0000 C   0  0  0  0  0  0  0  0  0  0  0  0
   -0.7500    3.8971    0.0000 C   0  0  0  0  0  0  0  0  0  0  0  0
   -2.2500    3.8971    0.0000 C   0  0  0  0  0  0  0  0  0  0  0  0
   -3.0000    5.1962    0.0000 C   0  0  0  0  0  0  0  0  0  0  0  0
   -3.7500    6.4952    0.0000 F   0  0  0  0  0  0  0  0  0  0  0  0
   -1.7010    5.9462    0.0000 F   0  0  0  0  0  0  0  0  0  0  0  0
   -4.2990    4.4462    0.0000 F   0  0  0  0  0  0  0  0  0  0  0  0
   -3.0000    2.5981    0.0000 C   0  0  0  0  0  0  0  0  0  0  0  0
   -2.2500    1.2990    0.0000 C   0  0  0  0  0  0  0  0  0  0  0  0
   -0.7500   -1.2990    0.0000 C   0  0  0  0  0  0  0  0  0  0  0  0
   -2.2500   -1.2990    0.0000 C   0  0  0  0  0  0  0  0  0  0  0  0
   -3.0000   -2.5981    0.0000 C   0  0  0  0  0  0  0  0  0  0  0  0
   -2.2500   -3.8971    0.0000 C   0  0  0  0  0  0  0  0  0  0  0  0
   -3.0000   -5.1962    0.0000 C   0  0  0  0  0  0  0  0  0  0  0  0
   -3.7500   -6.4952    0.0000 F   0  0  0  0  0  0  0  0  0  0  0  0
   -4.2990   -4.4462    0.0000 F   0  0  0  0  0  0  0  0  0  0  0  0
   -1.7010   -5.9462    0.0000 F   0  0  0  0  0  0  0  0  0  0  0  0
   -0.7500   -3.8971    0.0000 C   0  0  0  0  0  0  0  0  0  0  0  0
   -0.0000   -2.5981    0.0000 C   0  0  0  0  0  0  0  0  0  0  0  0
    2.2500    1.2990    0.0000 C   0  0  0  0  0  0  0  0  0  0  0  0
    3.7500    1.2990    0.0000 C   0  0  0  0  0  0  0  0  0  0  0  0
  1  2  1  0
  2  3  1  0
  2  4  1  0
  2  5  1  0
  5  6  2  0
  6  7  1  0
  7  8  2  0
  8  9  1  0
  9 10  1  0
 10 11  2  0
 11 12  1  0
 12 13  2  0
 13 14  1  0
 14 15  1  0
 14 16  1  0
 14 17  1  0
 13 18  1  0
 18 19  2  0
  9 20  1  0
 20 21  2  0
 21 22  1  0
 22 23  2  0
 23 24  1  0
 24 25  1  0
 24 26  1  0
 24 27  1  0
 23 28  1  0
 28 29  2  0
  8 30  1  0
 30 31  2  0
 31  5  1  0
 19 10  1  0
 29 20  1  0
M  END
>  <linear_selectivity>  (365) 
30

>  <denticity>  (365) 
1

>  <ligand_class>  (365) 
phosphine

$$$$
P(4-CF3-Ph)3_130C_hexane
     RDKit          2D

 31 33  0  0  0  0  0  0  0  0999 V2000
    7.5000   -0.0000    0.0000 F   0  0  0  0  0  0  0  0  0  0  0  0
    6.0000   -0.0000    0.0000 C   0  0  0  0  0  0  0  0  0  0  0  0
    6.0000   -1.5000    0.0000 F   0  0  0  0  0  0  0  0  0  0  0  0
    6.0000    1.5000    0.0000 F   0  0  0  0  0  0  0  0  0  0  0  0
    4.5000   -0.0000    0.0000 C   0  0  0  0  0  0  0  0  0  0  0  0
    3.7500   -1.2990    0.0000 C   0  0  0  0  0  0  0  0  0  0  0  0
    2.2500   -1.2990    0.0000 C   0  0  0  0  0  0  0  0  0  0  0  0
    1.5000   -0.0000    0.0000 C   0  0  0  0  0  0  0  0  0  0  0  0
    0.0000    0.0000    0.0000 P   0  0  0  0  0  0  0  0  0  0  0  0
   -0.7500    1.2990    0.0000 C   0  0  0  0  0  0  0  0  0  0  0  0
    0.0000    2.5981    0.0000 C   0  0  0  0  0  0  0  0  0  0  0  0
   -0.7500    3.8971    0.0000 C   0  0  0  0  0  0  0  0  0  0  0  0
   -2.2500    3.8971    0.0000 C   0  0  0  0  0  0  0  0  0  0  0  0
   -3.0000    5.1962    0.0000 C   0  0  0  0  0  0  0  0  0  0  0  0
   -3.7500    6.4952    0.0000 F   0  0  0  0  0  0  0  0  0  0  0  0
   -1.7010    5.9462    0.0000 F   0  0  0  0  0  0  0  0  0  0  0  0
   -4.2990    4.4462    0.0000 F   0  0  0  0  0  0  0  0  0  0  0  0
   -3.0000    2.5981    0.0000 C   0  0  0  0  0  0  0  0  0  0  0  0
   -2.2500    1.2990    0.0000 C   0  0  0  0  0  0  0  0  0  0  0  0
   -0.7500   -1.2990    0.0000 C   0  0  0  0  0  0  0  0  0  0  0  0
   -2.2500   -1.2990    0.0000 C   0  0  0  0  0  0  0  0  0  0  0  0
   -3.0000   -2.5981    0.0000 C   0  0  0  0  0  0  0  0  0  0  0  0
   -2.2500   -3.8971    0.0000 C   0  0  0  0  0  0  0  0  0  0  0  0
   -3.0000   -5.1962    0.0000 C   0  0  0  0  0  0  0  0  0  0  0  0
   -3.7500   -6.4952    0.0000 F   0  0  0  0  0  0  0  0  0  0  0  0
   -4.2990   -4.4462    0.0000 F   0  0  0  0  0  0  0  0  0  0  0  0
   -1.7010   -5.9462    0.0000 F   0  0  0  0  0  0  0  0  0  0  0  0
   -0.7500   -3.8971    0.0000 C   0  0  0  0  0  0  0  0  0  0  0  0
   -0.0000   -2.5981    0.0000 C   0  0  0  0  0  0  0  0  0  0  0  0
    2.2500    1.2990    0.0000 C   0  0  0  0  0  0  0  0  0  0  0  0
    3.7500    1.2990    0.0000 C   0  0  0  0  0  0  0  0  0  0  0  0
  1  2  1  0
  2  3  1  0
  2  4  1  0
  2  5  1  0
  5  6  2  0
  6  7  1  0
  7  8  2  0
  8  9  1  0
  9 10  1  0
 10 11  2  0
 11 12  1  0
 12 13  2  0
 13 14  1  0
 14 15  1  0
 14 16  1  0
 14 17  1  0
 13 18  1  0
 18 19  2  0
  9 20  1  0
 20 21  2  0
 21 22  1  0
 22 23  2  0
 23 24  1  0
 24 25  1  0
 24 26  1  0
 24 27  1  0
 23 28  1  0
 28 29  2  0
  8 30  1  0
 30 31  2  0
 31  5  1  0
 19 10  1  0
 29 20  1  0
M  END
>  <linear_selectivity>  (366) 
38

>  <denticity>  (366) 
1

>  <ligand_class>  (366) 
phosphine

$$$$
P(4-CF3-Ph)3_130C_benzene
     RDKit          2D

 31 33  0  0  0  0  0  0  0  0999 V2000
    7.5000   -0.0000    0.0000 F   0  0  0  0  0  0  0  0  0  0  0  0
    6.0000   -0.0000    0.0000 C   0  0  0  0  0  0  0  0  0  0  0  0
    6.0000   -1.5000    0.0000 F   0  0  0  0  0  0  0  0  0  0  0  0
    6.0000    1.5000    0.0000 F   0  0  0  0  0  0  0  0  0  0  0  0
    4.5000   -0.0000    0.0000 C   0  0  0  0  0  0  0  0  0  0  0  0
    3.7500   -1.2990    0.0000 C   0  0  0  0  0  0  0  0  0  0  0  0
    2.2500   -1.2990    0.0000 C   0  0  0  0  0  0  0  0  0  0  0  0
    1.5000   -0.0000    0.0000 C   0  0  0  0  0  0  0  0  0  0  0  0
    0.0000    0.0000    0.0000 P   0  0  0  0  0  0  0  0  0  0  0  0
   -0.7500    1.2990    0.0000 C   0  0  0  0  0  0  0  0  0  0  0  0
    0.0000    2.5981    0.0000 C   0  0  0  0  0  0  0  0  0  0  0  0
   -0.7500    3.8971    0.0000 C   0  0  0  0  0  0  0  0  0  0  0  0
   -2.2500    3.8971    0.0000 C   0  0  0  0  0  0  0  0  0  0  0  0
   -3.0000    5.1962    0.0000 C   0  0  0  0  0  0  0  0  0  0  0  0
   -3.7500    6.4952    0.0000 F   0  0  0  0  0  0  0  0  0  0  0  0
   -1.7010    5.9462    0.0000 F   0  0  0  0  0  0  0  0  0  0  0  0
   -4.2990    4.4462    0.0000 F   0  0  0  0  0  0  0  0  0  0  0  0
   -3.0000    2.5981    0.0000 C   0  0  0  0  0  0  0  0  0  0  0  0
   -2.2500    1.2990    0.0000 C   0  0  0  0  0  0  0  0  0  0  0  0
   -0.7500   -1.2990    0.0000 C   0  0  0  0  0  0  0  0  0  0  0  0
   -2.2500   -1.2990    0.0000 C   0  0  0  0  0  0  0  0  0  0  0  0
   -3.0000   -2.5981    0.0000 C   0  0  0  0  0  0  0  0  0  0  0  0
   -2.2500   -3.8971    0.0000 C   0  0  0  0  0  0  0  0  0  0  0  0
   -3.0000   -5.1962    0.0000 C   0  0  0  0  0  0  0  0  0  0  0  0
   -3.7500   -6.4952    0.0000 F   0  0  0  0  0  0  0  0  0  0  0  0
   -4.2990   -4.4462    0.0000 F   0  0  0  0  0  0  0  0  0  0  0  0
   -1.7010   -5.9462    0.0000 F   0  0  0  0  0  0  0  0  0  0  0  0
   -0.7500   -3.8971    0.0000 C   0  0  0  0  0  0  0  0  0  0  0  0
   -0.0000   -2.5981    0.0000 C   0  0  0  0  0  0  0  0  0  0  0  0
    2.2500    1.2990    0.0000 C   0  0  0  0  0  0  0  0  0  0  0  0
    3.7500    1.2990    0.0000 C   0  0  0  0  0  0  0  0  0  0  0  0
  1  2  1  0
  2  3  1  0
  2  4  1  0
  2  5  1  0
  5  6  2  0
  6  7  1  0
  7  8  2  0
  8  9  1  0
  9 10  1  0
 10 11  2  0
 11 12  1  0
 12 13  2  0
 13 14  1  0
 14 15  1  0
 14 16  1  0
 14 17  1  0
 13 18  1  0
 18 19  2  0
  9 20  1  0
 20 21  2  0
 21 22  1  0
 22 23  2  0
 23 24  1  0
 24 25  1  0
 24 26  1  0
 24 27  1  0
 23 28  1  0
 28 29  2  0
  8 30  1  0
 30 31  2  0
 31  5  1  0
 19 10  1  0
 29 20  1  0
M  END
>  <linear_selectivity>  (367) 
35

>  <denticity>  (367) 
1

>  <ligand_class>  (367) 
phosphine

$$$$
P(4-MeO-Ph)3
     RDKit          2D

 25 27  0  0  0  0  0  0  0  0999 V2000
    6.7500   -1.2990    0.0000 C   0  0  0  0  0  0  0  0  0  0  0  0
    6.0000   -0.0000    0.0000 O   0  0  0  0  0  0  0  0  0  0  0  0
    4.5000   -0.0000    0.0000 C   0  0  0  0  0  0  0  0  0  0  0  0
    3.7500   -1.2990    0.0000 C   0  0  0  0  0  0  0  0  0  0  0  0
    2.2500   -1.2990    0.0000 C   0  0  0  0  0  0  0  0  0  0  0  0
    1.5000   -0.0000    0.0000 C   0  0  0  0  0  0  0  0  0  0  0  0
    0.0000   -0.0000    0.0000 P   0  0  0  0  0  0  0  0  0  0  0  0
   -0.7500    1.2990    0.0000 C   0  0  0  0  0  0  0  0  0  0  0  0
    0.0000    2.5981    0.0000 C   0  0  0  0  0  0  0  0  0  0  0  0
   -0.7500    3.8971    0.0000 C   0  0  0  0  0  0  0  0  0  0  0  0
   -2.2500    3.8971    0.0000 C   0  0  0  0  0  0  0  0  0  0  0  0
   -3.0000    5.1962    0.0000 O   0  0  0  0  0  0  0  0  0  0  0  0
   -2.2500    6.4952    0.0000 C   0  0  0  0  0  0  0  0  0  0  0  0
   -3.0000    2.5981    0.0000 C   0  0  0  0  0  0  0  0  0  0  0  0
   -2.2500    1.2990    0.0000 C   0  0  0  0  0  0  0  0  0  0  0  0
   -0.7500   -1.2990    0.0000 C   0  0  0  0  0  0  0  0  0  0  0  0
   -2.2500   -1.2990    0.0000 C   0  0  0  0  0  0  0  0  0  0  0  0
   -3.0000   -2.5981    0.0000 C   0  0  0  0  0  0  0  0  0  0  0  0
   -2.2500   -3.8971    0.0000 C   0  0  0  0  0  0  0  0  0  0  0  0
   -3.0000   -5.1962    0.0000 O   0  0  0  0  0  0  0  0  0  0  0  0
   -4.5000   -5.1962    0.0000 C   0  0  0  0  0  0  0  0  0  0  0  0
   -0.7500   -3.8971    0.0000 C   0  0  0  0  0  0  0  0  0  0  0  0
   -0.0000   -2.5981    0.0000 C   0  0  0  0  0  0  0  0  0  0  0  0
    2.2500    1.2990    0.0000 C   0  0  0  0  0  0  0  0  0  0  0  0
    3.7500    1.2990    0.0000 C   0  0  0  0  0  0  0  0  0  0  0  0
  1  2  1  0
  2  3  1  0
  3  4  2  0
  4  5  1  0
  5  6  2  0
  6  7  1  0
  7  8  1  0
  8  9  2  0
  9 10  1  0
 10 11  2  0
 11 12  1  0
 12 13  1  0
 11 14  1  0
 14 15  2  0
  7 16  1  0
 16 17  2  0
 17 18  1  0
 18 19  2  0
 19 20  1  0
 20 21  1  0
 19 22  1  0
 22 23  2  0
  6 24  1  0
 24 25  2  0
 25  3  1  0
 15  8  1  0
 23 16  1  0
M  END
>  <linear_selectivity>  (368) 
29

>  <denticity>  (368) 
1

>  <ligand_class>  (368) 
phosphine

$$$$
P(4-MeO-Ph)3_70C_THF
     RDKit          2D

 25 27  0  0  0  0  0  0  0  0999 V2000
    6.7500   -1.2990    0.0000 C   0  0  0  0  0  0  0  0  0  0  0  0
    6.0000   -0.0000    0.0000 O   0  0  0  0  0  0  0  0  0  0  0  0
    4.5000   -0.0000    0.0000 C   0  0  0  0  0  0  0  0  0  0  0  0
    3.7500   -1.2990    0.0000 C   0  0  0  0  0  0  0  0  0  0  0  0
    2.2500   -1.2990    0.0000 C   0  0  0  0  0  0  0  0  0  0  0  0
    1.5000   -0.0000    0.0000 C   0  0  0  0  0  0  0  0  0  0  0  0
    0.0000   -0.0000    0.0000 P   0  0  0  0  0  0  0  0  0  0  0  0
   -0.7500    1.2990    0.0000 C   0  0  0  0  0  0  0  0  0  0  0  0
    0.0000    2.5981    0.0000 C   0  0  0  0  0  0  0  0  0  0  0  0
   -0.7500    3.8971    0.0000 C   0  0  0  0  0  0  0  0  0  0  0  0
   -2.2500    3.8971    0.0000 C   0  0  0  0  0  0  0  0  0  0  0  0
   -3.0000    5.1962    0.0000 O   0  0  0  0  0  0  0  0  0  0  0  0
   -2.2500    6.4952    0.0000 C   0  0  0  0  0  0  0  0  0  0  0  0
   -3.0000    2.5981    0.0000 C   0  0  0  0  0  0  0  0  0  0  0  0
   -2.2500    1.2990    0.0000 C   0  0  0  0  0  0  0  0  0  0  0  0
   -0.7500   -1.2990    0.0000 C   0  0  0  0  0  0  0  0  0  0  0  0
   -2.2500   -1.2990    0.0000 C   0  0  0  0  0  0  0  0  0  0  0  0
   -3.0000   -2.5981    0.0000 C   0  0  0  0  0  0  0  0  0  0  0  0
   -2.2500   -3.8971    0.0000 C   0  0  0  0  0  0  0  0  0  0  0  0
   -3.0000   -5.1962    0.0000 O   0  0  0  0  0  0  0  0  0  0  0  0
   -4.5000   -5.1962    0.0000 C   0  0  0  0  0  0  0  0  0  0  0  0
   -0.7500   -3.8971    0.0000 C   0  0  0  0  0  0  0  0  0  0  0  0
   -0.0000   -2.5981    0.0000 C   0  0  0  0  0  0  0  0  0  0  0  0
    2.2500    1.2990    0.0000 C   0  0  0  0  0  0  0  0  0  0  0  0
    3.7500    1.2990    0.0000 C   0  0  0  0  0  0  0  0  0  0  0  0
  1  2  1  0
  2  3  1  0
  3  4  2  0
  4  5  1  0
  5  6  2  0
  6  7  1  0
  7  8  1  0
  8  9  2  0
  9 10  1  0
 10 11  2  0
 11 12  1  0
 12 13  1  0
 11 14  1  0
 14 15  2  0
  7 16  1  0
 16 17  2  0
 17 18  1  0
 18 19  2  0
 19 20  1  0
 20 21  1  0
 19 22  1  0
 22 23  2  0
  6 24  1  0
 24 25  2  0
 25  3  1  0
 15  8  1  0
 23 16  1  0
M  END
>  <linear_selectivity>  (369) 
30

>  <denticity>  (369) 
1

>  <ligand_class>  (369) 
phosphine

$$$$
P(4-MeO-Ph)3_70C_hexane
     RDKit          2D

 25 27  0  0  0  0  0  0  0  0999 V2000
    6.7500   -1.2990    0.0000 C   0  0  0  0  0  0  0  0  0  0  0  0
    6.0000   -0.0000    0.0000 O   0  0  0  0  0  0  0  0  0  0  0  0
    4.5000   -0.0000    0.0000 C   0  0  0  0  0  0  0  0  0  0  0  0
    3.7500   -1.2990    0.0000 C   0  0  0  0  0  0  0  0  0  0  0  0
    2.2500   -1.2990    0.0000 C   0  0  0  0  0  0  0  0  0  0  0  0
    1.5000   -0.0000    0.0000 C   0  0  0  0  0  0  0  0  0  0  0  0
    0.0000   -0.0000    0.0000 P   0  0  0  0  0  0  0  0  0  0  0  0
   -0.7500    1.2990    0.0000 C   0  0  0  0  0  0  0  0  0  0  0  0
    0.0000    2.5981    0.0000 C   0  0  0  0  0  0  0  0  0  0  0  0
   -0.7500    3.8971    0.0000 C   0  0  0  0  0  0  0  0  0  0  0  0
   -2.2500    3.8971    0.0000 C   0  0  0  0  0  0  0  0  0  0  0  0
   -3.0000    5.1962    0.0000 O   0  0  0  0  0  0  0  0  0  0  0  0
   -2.2500    6.4952    0.0000 C   0  0  0  0  0  0  0  0  0  0  0  0
   -3.0000    2.5981    0.0000 C   0  0  0  0  0  0  0  0  0  0  0  0
   -2.2500    1.2990    0.0000 C   0  0  0  0  0  0  0  0  0  0  0  0
   -0.7500   -1.2990    0.0000 C   0  0  0  0  0  0  0  0  0  0  0  0
   -2.2500   -1.2990    0.0000 C   0  0  0  0  0  0  0  0  0  0  0  0
   -3.0000   -2.5981    0.0000 C   0  0  0  0  0  0  0  0  0  0  0  0
   -2.2500   -3.8971    0.0000 C   0  0  0  0  0  0  0  0  0  0  0  0
   -3.0000   -5.1962    0.0000 O   0  0  0  0  0  0  0  0  0  0  0  0
   -4.5000   -5.1962    0.0000 C   0  0  0  0  0  0  0  0  0  0  0  0
   -0.7500   -3.8971    0.0000 C   0  0  0  0  0  0  0  0  0  0  0  0
   -0.0000   -2.5981    0.0000 C   0  0  0  0  0  0  0  0  0  0  0  0
    2.2500    1.2990    0.0000 C   0  0  0  0  0  0  0  0  0  0  0  0
    3.7500    1.2990    0.0000 C   0  0  0  0  0  0  0  0  0  0  0  0
  1  2  1  0
  2  3  1  0
  3  4  2  0
  4  5  1  0
  5  6  2  0
  6  7  1  0
  7  8  1  0
  8  9  2  0
  9 10  1  0
 10 11  2  0
 11 12  1  0
 12 13  1  0
 11 14  1  0
 14 15  2  0
  7 16  1  0
 16 17  2  0
 17 18  1  0
 18 19  2  0
 19 20  1  0
 20 21  1  0
 19 22  1  0
 22 23  2  0
  6 24  1  0
 24 25  2  0
 25  3  1  0
 15  8  1  0
 23 16  1  0
M  END
>  <linear_selectivity>  (370) 
30

>  <denticity>  (370) 
1

>  <ligand_class>  (370) 
phosphine

$$$$
P(4-MeO-Ph)3_70C_xylene
     RDKit          2D

 25 27  0  0  0  0  0  0  0  0999 V2000
    6.7500   -1.2990    0.0000 C   0  0  0  0  0  0  0  0  0  0  0  0
    6.0000   -0.0000    0.0000 O   0  0  0  0  0  0  0  0  0  0  0  0
    4.5000   -0.0000    0.0000 C   0  0  0  0  0  0  0  0  0  0  0  0
    3.7500   -1.2990    0.0000 C   0  0  0  0  0  0  0  0  0  0  0  0
    2.2500   -1.2990    0.0000 C   0  0  0  0  0  0  0  0  0  0  0  0
    1.5000   -0.0000    0.0000 C   0  0  0  0  0  0  0  0  0  0  0  0
    0.0000   -0.0000    0.0000 P   0  0  0  0  0  0  0  0  0  0  0  0
   -0.7500    1.2990    0.0000 C   0  0  0  0  0  0  0  0  0  0  0  0
    0.0000    2.5981    0.0000 C   0  0  0  0  0  0  0  0  0  0  0  0
   -0.7500    3.8971    0.0000 C   0  0  0  0  0  0  0  0  0  0  0  0
   -2.2500    3.8971    0.0000 C   0  0  0  0  0  0  0  0  0  0  0  0
   -3.0000    5.1962    0.0000 O   0  0  0  0  0  0  0  0  0  0  0  0
   -2.2500    6.4952    0.0000 C   0  0  0  0  0  0  0  0  0  0  0  0
   -3.0000    2.5981    0.0000 C   0  0  0  0  0  0  0  0  0  0  0  0
   -2.2500    1.2990    0.0000 C   0  0  0  0  0  0  0  0  0  0  0  0
   -0.7500   -1.2990    0.0000 C   0  0  0  0  0  0  0  0  0  0  0  0
   -2.2500   -1.2990    0.0000 C   0  0  0  0  0  0  0  0  0  0  0  0
   -3.0000   -2.5981    0.0000 C   0  0  0  0  0  0  0  0  0  0  0  0
   -2.2500   -3.8971    0.0000 C   0  0  0  0  0  0  0  0  0  0  0  0
   -3.0000   -5.1962    0.0000 O   0  0  0  0  0  0  0  0  0  0  0  0
   -4.5000   -5.1962    0.0000 C   0  0  0  0  0  0  0  0  0  0  0  0
   -0.7500   -3.8971    0.0000 C   0  0  0  0  0  0  0  0  0  0  0  0
   -0.0000   -2.5981    0.0000 C   0  0  0  0  0  0  0  0  0  0  0  0
    2.2500    1.2990    0.0000 C   0  0  0  0  0  0  0  0  0  0  0  0
    3.7500    1.2990    0.0000 C   0  0  0  0  0  0  0  0  0  0  0  0
  1  2  1  0
  2  3  1  0
  3  4  2  0
  4  5  1  0
  5  6  2  0
  6  7  1  0
  7  8  1  0
  8  9  2  0
  9 10  1  0
 10 11  2  0
 11 12  1  0
 12 13  1  0
 11 14  1  0
 14 15  2  0
  7 16  1  0
 16 17  2  0
 17 18  1  0
 18 19  2  0
 19 20  1  0
 20 21  1  0
 19 22  1  0
 22 23  2  0
  6 24  1  0
 24 25  2  0
 25  3  1  0
 15  8  1  0
 23 16  1  0
M  END
>  <linear_selectivity>  (371) 
35

>  <denticity>  (371) 
1

>  <ligand_class>  (371) 
phosphine

$$$$
P(4-MeO-Ph)3_80C_dioxane
     RDKit          2D

 25 27  0  0  0  0  0  0  0  0999 V2000
    6.7500   -1.2990    0.0000 C   0  0  0  0  0  0  0  0  0  0  0  0
    6.0000   -0.0000    0.0000 O   0  0  0  0  0  0  0  0  0  0  0  0
    4.5000   -0.0000    0.0000 C   0  0  0  0  0  0  0  0  0  0  0  0
    3.7500   -1.2990    0.0000 C   0  0  0  0  0  0  0  0  0  0  0  0
    2.2500   -1.2990    0.0000 C   0  0  0  0  0  0  0  0  0  0  0  0
    1.5000   -0.0000    0.0000 C   0  0  0  0  0  0  0  0  0  0  0  0
    0.0000   -0.0000    0.0000 P   0  0  0  0  0  0  0  0  0  0  0  0
   -0.7500    1.2990    0.0000 C   0  0  0  0  0  0  0  0  0  0  0  0
    0.0000    2.5981    0.0000 C   0  0  0  0  0  0  0  0  0  0  0  0
   -0.7500    3.8971    0.0000 C   0  0  0  0  0  0  0  0  0  0  0  0
   -2.2500    3.8971    0.0000 C   0  0  0  0  0  0  0  0  0  0  0  0
   -3.0000    5.1962    0.0000 O   0  0  0  0  0  0  0  0  0  0  0  0
   -2.2500    6.4952    0.0000 C   0  0  0  0  0  0  0  0  0  0  0  0
   -3.0000    2.5981    0.0000 C   0  0  0  0  0  0  0  0  0  0  0  0
   -2.2500    1.2990    0.0000 C   0  0  0  0  0  0  0  0  0  0  0  0
   -0.7500   -1.2990    0.0000 C   0  0  0  0  0  0  0  0  0  0  0  0
   -2.2500   -1.2990    0.0000 C   0  0  0  0  0  0  0  0  0  0  0  0
   -3.0000   -2.5981    0.0000 C   0  0  0  0  0  0  0  0  0  0  0  0
   -2.2500   -3.8971    0.0000 C   0  0  0  0  0  0  0  0  0  0  0  0
   -3.0000   -5.1962    0.0000 O   0  0  0  0  0  0  0  0  0  0  0  0
   -4.5000   -5.1962    0.0000 C   0  0  0  0  0  0  0  0  0  0  0  0
   -0.7500   -3.8971    0.0000 C   0  0  0  0  0  0  0  0  0  0  0  0
   -0.0000   -2.5981    0.0000 C   0  0  0  0  0  0  0  0  0  0  0  0
    2.2500    1.2990    0.0000 C   0  0  0  0  0  0  0  0  0  0  0  0
    3.7500    1.2990    0.0000 C   0  0  0  0  0  0  0  0  0  0  0  0
  1  2  1  0
  2  3  1  0
  3  4  2  0
  4  5  1  0
  5  6  2  0
  6  7  1  0
  7  8  1  0
  8  9  2  0
  9 10  1  0
 10 11  2  0
 11 12  1  0
 12 13  1  0
 11 14  1  0
 14 15  2  0
  7 16  1  0
 16 17  2  0
 17 18  1  0
 18 19  2  0
 19 20  1  0
 20 21  1  0
 19 22  1  0
 22 23  2  0
  6 24  1  0
 24 25  2  0
 25  3  1  0
 15  8  1  0
 23 16  1  0
M  END
>  <linear_selectivity>  (372) 
33

>  <denticity>  (372) 
1

>  <ligand_class>  (372) 
phosphine

$$$$
P(4-MeO-Ph)3_80C_hexane
     RDKit          2D

 25 27  0  0  0  0  0  0  0  0999 V2000
    6.7500   -1.2990    0.0000 C   0  0  0  0  0  0  0  0  0  0  0  0
    6.0000   -0.0000    0.0000 O   0  0  0  0  0  0  0  0  0  0  0  0
    4.5000   -0.0000    0.0000 C   0  0  0  0  0  0  0  0  0  0  0  0
    3.7500   -1.2990    0.0000 C   0  0  0  0  0  0  0  0  0  0  0  0
    2.2500   -1.2990    0.0000 C   0  0  0  0  0  0  0  0  0  0  0  0
    1.5000   -0.0000    0.0000 C   0  0  0  0  0  0  0  0  0  0  0  0
    0.0000   -0.0000    0.0000 P   0  0  0  0  0  0  0  0  0  0  0  0
   -0.7500    1.2990    0.0000 C   0  0  0  0  0  0  0  0  0  0  0  0
    0.0000    2.5981    0.0000 C   0  0  0  0  0  0  0  0  0  0  0  0
   -0.7500    3.8971    0.0000 C   0  0  0  0  0  0  0  0  0  0  0  0
   -2.2500    3.8971    0.0000 C   0  0  0  0  0  0  0  0  0  0  0  0
   -3.0000    5.1962    0.0000 O   0  0  0  0  0  0  0  0  0  0  0  0
   -2.2500    6.4952    0.0000 C   0  0  0  0  0  0  0  0  0  0  0  0
   -3.0000    2.5981    0.0000 C   0  0  0  0  0  0  0  0  0  0  0  0
   -2.2500    1.2990    0.0000 C   0  0  0  0  0  0  0  0  0  0  0  0
   -0.7500   -1.2990    0.0000 C   0  0  0  0  0  0  0  0  0  0  0  0
   -2.2500   -1.2990    0.0000 C   0  0  0  0  0  0  0  0  0  0  0  0
   -3.0000   -2.5981    0.0000 C   0  0  0  0  0  0  0  0  0  0  0  0
   -2.2500   -3.8971    0.0000 C   0  0  0  0  0  0  0  0  0  0  0  0
   -3.0000   -5.1962    0.0000 O   0  0  0  0  0  0  0  0  0  0  0  0
   -4.5000   -5.1962    0.0000 C   0  0  0  0  0  0  0  0  0  0  0  0
   -0.7500   -3.8971    0.0000 C   0  0  0  0  0  0  0  0  0  0  0  0
   -0.0000   -2.5981    0.0000 C   0  0  0  0  0  0  0  0  0  0  0  0
    2.2500    1.2990    0.0000 C   0  0  0  0  0  0  0  0  0  0  0  0
    3.7500    1.2990    0.0000 C   0  0  0  0  0  0  0  0  0  0  0  0
  1  2  1  0
  2  3  1  0
  3  4  2  0
  4  5  1  0
  5  6  2  0
  6  7  1  0
  7  8  1  0
  8  9  2  0
  9 10  1  0
 10 11  2  0
 11 12  1  0
 12 13  1  0
 11 14  1  0
 14 15  2  0
  7 16  1  0
 16 17  2  0
 17 18  1  0
 18 19  2  0
 19 20  1  0
 20 21  1  0
 19 22  1  0
 22 23  2  0
  6 24  1  0
 24 25  2  0
 25  3  1  0
 15  8  1  0
 23 16  1  0
M  END
>  <linear_selectivity>  (373) 
32

>  <denticity>  (373) 
1

>  <ligand_class>  (373) 
phosphine

$$$$
P(4-MeO-Ph)3_80C_benzene
     RDKit          2D

 25 27  0  0  0  0  0  0  0  0999 V2000
    6.7500   -1.2990    0.0000 C   0  0  0  0  0  0  0  0  0  0  0  0
    6.0000   -0.0000    0.0000 O   0  0  0  0  0  0  0  0  0  0  0  0
    4.5000   -0.0000    0.0000 C   0  0  0  0  0  0  0  0  0  0  0  0
    3.7500   -1.2990    0.0000 C   0  0  0  0  0  0  0  0  0  0  0  0
    2.2500   -1.2990    0.0000 C   0  0  0  0  0  0  0  0  0  0  0  0
    1.5000   -0.0000    0.0000 C   0  0  0  0  0  0  0  0  0  0  0  0
    0.0000   -0.0000    0.0000 P   0  0  0  0  0  0  0  0  0  0  0  0
   -0.7500    1.2990    0.0000 C   0  0  0  0  0  0  0  0  0  0  0  0
    0.0000    2.5981    0.0000 C   0  0  0  0  0  0  0  0  0  0  0  0
   -0.7500    3.8971    0.0000 C   0  0  0  0  0  0  0  0  0  0  0  0
   -2.2500    3.8971    0.0000 C   0  0  0  0  0  0  0  0  0  0  0  0
   -3.0000    5.1962    0.0000 O   0  0  0  0  0  0  0  0  0  0  0  0
   -2.2500    6.4952    0.0000 C   0  0  0  0  0  0  0  0  0  0  0  0
   -3.0000    2.5981    0.0000 C   0  0  0  0  0  0  0  0  0  0  0  0
   -2.2500    1.2990    0.0000 C   0  0  0  0  0  0  0  0  0  0  0  0
   -0.7500   -1.2990    0.0000 C   0  0  0  0  0  0  0  0  0  0  0  0
   -2.2500   -1.2990    0.0000 C   0  0  0  0  0  0  0  0  0  0  0  0
   -3.0000   -2.5981    0.0000 C   0  0  0  0  0  0  0  0  0  0  0  0
   -2.2500   -3.8971    0.0000 C   0  0  0  0  0  0  0  0  0  0  0  0
   -3.0000   -5.1962    0.0000 O   0  0  0  0  0  0  0  0  0  0  0  0
   -4.5000   -5.1962    0.0000 C   0  0  0  0  0  0  0  0  0  0  0  0
   -0.7500   -3.8971    0.0000 C   0  0  0  0  0  0  0  0  0  0  0  0
   -0.0000   -2.5981    0.0000 C   0  0  0  0  0  0  0  0  0  0  0  0
    2.2500    1.2990    0.0000 C   0  0  0  0  0  0  0  0  0  0  0  0
    3.7500    1.2990    0.0000 C   0  0  0  0  0  0  0  0  0  0  0  0
  1  2  1  0
  2  3  1  0
  3  4  2  0
  4  5  1  0
  5  6  2  0
  6  7  1  0
  7  8  1  0
  8  9  2  0
  9 10  1  0
 10 11  2  0
 11 12  1  0
 12 13  1  0
 11 14  1  0
 14 15  2  0
  7 16  1  0
 16 17  2  0
 17 18  1  0
 18 19  2  0
 19 20  1  0
 20 21  1  0
 19 22  1  0
 22 23  2  0
  6 24  1  0
 24 25  2  0
 25  3  1  0
 15  8  1  0
 23 16  1  0
M  END
>  <linear_selectivity>  (374) 
31

>  <denticity>  (374) 
1

>  <ligand_class>  (374) 
phosphine

$$$$
P(4-MeO-Ph)3_80C_xylene
     RDKit          2D

 25 27  0  0  0  0  0  0  0  0999 V2000
    6.7500   -1.2990    0.0000 C   0  0  0  0  0  0  0  0  0  0  0  0
    6.0000   -0.0000    0.0000 O   0  0  0  0  0  0  0  0  0  0  0  0
    4.5000   -0.0000    0.0000 C   0  0  0  0  0  0  0  0  0  0  0  0
    3.7500   -1.2990    0.0000 C   0  0  0  0  0  0  0  0  0  0  0  0
    2.2500   -1.2990    0.0000 C   0  0  0  0  0  0  0  0  0  0  0  0
    1.5000   -0.0000    0.0000 C   0  0  0  0  0  0  0  0  0  0  0  0
    0.0000   -0.0000    0.0000 P   0  0  0  0  0  0  0  0  0  0  0  0
   -0.7500    1.2990    0.0000 C   0  0  0  0  0  0  0  0  0  0  0  0
    0.0000    2.5981    0.0000 C   0  0  0  0  0  0  0  0  0  0  0  0
   -0.7500    3.8971    0.0000 C   0  0  0  0  0  0  0  0  0  0  0  0
   -2.2500    3.8971    0.0000 C   0  0  0  0  0  0  0  0  0  0  0  0
   -3.0000    5.1962    0.0000 O   0  0  0  0  0  0  0  0  0  0  0  0
   -2.2500    6.4952    0.0000 C   0  0  0  0  0  0  0  0  0  0  0  0
   -3.0000    2.5981    0.0000 C   0  0  0  0  0  0  0  0  0  0  0  0
   -2.2500    1.2990    0.0000 C   0  0  0  0  0  0  0  0  0  0  0  0
   -0.7500   -1.2990    0.0000 C   0  0  0  0  0  0  0  0  0  0  0  0
   -2.2500   -1.2990    0.0000 C   0  0  0  0  0  0  0  0  0  0  0  0
   -3.0000   -2.5981    0.0000 C   0  0  0  0  0  0  0  0  0  0  0  0
   -2.2500   -3.8971    0.0000 C   0  0  0  0  0  0  0  0  0  0  0  0
   -3.0000   -5.1962    0.0000 O   0  0  0  0  0  0  0  0  0  0  0  0
   -4.5000   -5.1962    0.0000 C   0  0  0  0  0  0  0  0  0  0  0  0
   -0.7500   -3.8971    0.0000 C   0  0  0  0  0  0  0  0  0  0  0  0
   -0.0000   -2.5981    0.0000 C   0  0  0  0  0  0  0  0  0  0  0  0
    2.2500    1.2990    0.0000 C   0  0  0  0  0  0  0  0  0  0  0  0
    3.7500    1.2990    0.0000 C   0  0  0  0  0  0  0  0  0  0  0  0
  1  2  1  0
  2  3  1  0
  3  4  2  0
  4  5  1  0
  5  6  2  0
  6  7  1  0
  7  8  1  0
  8  9  2  0
  9 10  1  0
 10 11  2  0
 11 12  1  0
 12 13  1  0
 11 14  1  0
 14 15  2  0
  7 16  1  0
 16 17  2  0
 17 18  1  0
 18 19  2  0
 19 20  1  0
 20 21  1  0
 19 22  1  0
 22 23  2  0
  6 24  1  0
 24 25  2  0
 25  3  1  0
 15  8  1  0
 23 16  1  0
M  END
>  <linear_selectivity>  (375) 
29

>  <denticity>  (375) 
1

>  <ligand_class>  (375) 
phosphine

$$$$
P(4-MeO-Ph)3_90C_toluene
     RDKit          2D

 25 27  0  0  0  0  0  0  0  0999 V2000
    6.7500   -1.2990    0.0000 C   0  0  0  0  0  0  0  0  0  0  0  0
    6.0000   -0.0000    0.0000 O   0  0  0  0  0  0  0  0  0  0  0  0
    4.5000   -0.0000    0.0000 C   0  0  0  0  0  0  0  0  0  0  0  0
    3.7500   -1.2990    0.0000 C   0  0  0  0  0  0  0  0  0  0  0  0
    2.2500   -1.2990    0.0000 C   0  0  0  0  0  0  0  0  0  0  0  0
    1.5000   -0.0000    0.0000 C   0  0  0  0  0  0  0  0  0  0  0  0
    0.0000   -0.0000    0.0000 P   0  0  0  0  0  0  0  0  0  0  0  0
   -0.7500    1.2990    0.0000 C   0  0  0  0  0  0  0  0  0  0  0  0
    0.0000    2.5981    0.0000 C   0  0  0  0  0  0  0  0  0  0  0  0
   -0.7500    3.8971    0.0000 C   0  0  0  0  0  0  0  0  0  0  0  0
   -2.2500    3.8971    0.0000 C   0  0  0  0  0  0  0  0  0  0  0  0
   -3.0000    5.1962    0.0000 O   0  0  0  0  0  0  0  0  0  0  0  0
   -2.2500    6.4952    0.0000 C   0  0  0  0  0  0  0  0  0  0  0  0
   -3.0000    2.5981    0.0000 C   0  0  0  0  0  0  0  0  0  0  0  0
   -2.2500    1.2990    0.0000 C   0  0  0  0  0  0  0  0  0  0  0  0
   -0.7500   -1.2990    0.0000 C   0  0  0  0  0  0  0  0  0  0  0  0
   -2.2500   -1.2990    0.0000 C   0  0  0  0  0  0  0  0  0  0  0  0
   -3.0000   -2.5981    0.0000 C   0  0  0  0  0  0  0  0  0  0  0  0
   -2.2500   -3.8971    0.0000 C   0  0  0  0  0  0  0  0  0  0  0  0
   -3.0000   -5.1962    0.0000 O   0  0  0  0  0  0  0  0  0  0  0  0
   -4.5000   -5.1962    0.0000 C   0  0  0  0  0  0  0  0  0  0  0  0
   -0.7500   -3.8971    0.0000 C   0  0  0  0  0  0  0  0  0  0  0  0
   -0.0000   -2.5981    0.0000 C   0  0  0  0  0  0  0  0  0  0  0  0
    2.2500    1.2990    0.0000 C   0  0  0  0  0  0  0  0  0  0  0  0
    3.7500    1.2990    0.0000 C   0  0  0  0  0  0  0  0  0  0  0  0
  1  2  1  0
  2  3  1  0
  3  4  2  0
  4  5  1  0
  5  6  2  0
  6  7  1  0
  7  8  1  0
  8  9  2  0
  9 10  1  0
 10 11  2  0
 11 12  1  0
 12 13  1  0
 11 14  1  0
 14 15  2  0
  7 16  1  0
 16 17  2  0
 17 18  1  0
 18 19  2  0
 19 20  1  0
 20 21  1  0
 19 22  1  0
 22 23  2  0
  6 24  1  0
 24 25  2  0
 25  3  1  0
 15  8  1  0
 23 16  1  0
M  END
>  <linear_selectivity>  (376) 
30

>  <denticity>  (376) 
1

>  <ligand_class>  (376) 
phosphine

$$$$
P(4-MeO-Ph)3_90C_benzene
     RDKit          2D

 25 27  0  0  0  0  0  0  0  0999 V2000
    6.7500   -1.2990    0.0000 C   0  0  0  0  0  0  0  0  0  0  0  0
    6.0000   -0.0000    0.0000 O   0  0  0  0  0  0  0  0  0  0  0  0
    4.5000   -0.0000    0.0000 C   0  0  0  0  0  0  0  0  0  0  0  0
    3.7500   -1.2990    0.0000 C   0  0  0  0  0  0  0  0  0  0  0  0
    2.2500   -1.2990    0.0000 C   0  0  0  0  0  0  0  0  0  0  0  0
    1.5000   -0.0000    0.0000 C   0  0  0  0  0  0  0  0  0  0  0  0
    0.0000   -0.0000    0.0000 P   0  0  0  0  0  0  0  0  0  0  0  0
   -0.7500    1.2990    0.0000 C   0  0  0  0  0  0  0  0  0  0  0  0
    0.0000    2.5981    0.0000 C   0  0  0  0  0  0  0  0  0  0  0  0
   -0.7500    3.8971    0.0000 C   0  0  0  0  0  0  0  0  0  0  0  0
   -2.2500    3.8971    0.0000 C   0  0  0  0  0  0  0  0  0  0  0  0
   -3.0000    5.1962    0.0000 O   0  0  0  0  0  0  0  0  0  0  0  0
   -2.2500    6.4952    0.0000 C   0  0  0  0  0  0  0  0  0  0  0  0
   -3.0000    2.5981    0.0000 C   0  0  0  0  0  0  0  0  0  0  0  0
   -2.2500    1.2990    0.0000 C   0  0  0  0  0  0  0  0  0  0  0  0
   -0.7500   -1.2990    0.0000 C   0  0  0  0  0  0  0  0  0  0  0  0
   -2.2500   -1.2990    0.0000 C   0  0  0  0  0  0  0  0  0  0  0  0
   -3.0000   -2.5981    0.0000 C   0  0  0  0  0  0  0  0  0  0  0  0
   -2.2500   -3.8971    0.0000 C   0  0  0  0  0  0  0  0  0  0  0  0
   -3.0000   -5.1962    0.0000 O   0  0  0  0  0  0  0  0  0  0  0  0
   -4.5000   -5.1962    0.0000 C   0  0  0  0  0  0  0  0  0  0  0  0
   -0.7500   -3.8971    0.0000 C   0  0  0  0  0  0  0  0  0  0  0  0
   -0.0000   -2.5981    0.0000 C   0  0  0  0  0  0  0  0  0  0  0  0
    2.2500    1.2990    0.0000 C   0  0  0  0  0  0  0  0  0  0  0  0
    3.7500    1.2990    0.0000 C   0  0  0  0  0  0  0  0  0  0  0  0
  1  2  1  0
  2  3  1  0
  3  4  2  0
  4  5  1  0
  5  6  2  0
  6  7  1  0
  7  8  1  0
  8  9  2  0
  9 10  1  0
 10 11  2  0
 11 12  1  0
 12 13  1  0
 11 14  1  0
 14 15  2  0
  7 16  1  0
 16 17  2  0
 17 18  1  0
 18 19  2  0
 19 20  1  0
 20 21  1  0
 19 22  1  0
 22 23  2  0
  6 24  1  0
 24 25  2  0
 25  3  1  0
 15  8  1  0
 23 16  1  0
M  END
>  <linear_selectivity>  (377) 
28

>  <denticity>  (377) 
1

>  <ligand_class>  (377) 
phosphine

$$$$
P(4-MeO-Ph)3_90C_xylene
     RDKit          2D

 25 27  0  0  0  0  0  0  0  0999 V2000
    6.7500   -1.2990    0.0000 C   0  0  0  0  0  0  0  0  0  0  0  0
    6.0000   -0.0000    0.0000 O   0  0  0  0  0  0  0  0  0  0  0  0
    4.5000   -0.0000    0.0000 C   0  0  0  0  0  0  0  0  0  0  0  0
    3.7500   -1.2990    0.0000 C   0  0  0  0  0  0  0  0  0  0  0  0
    2.2500   -1.2990    0.0000 C   0  0  0  0  0  0  0  0  0  0  0  0
    1.5000   -0.0000    0.0000 C   0  0  0  0  0  0  0  0  0  0  0  0
    0.0000   -0.0000    0.0000 P   0  0  0  0  0  0  0  0  0  0  0  0
   -0.7500    1.2990    0.0000 C   0  0  0  0  0  0  0  0  0  0  0  0
    0.0000    2.5981    0.0000 C   0  0  0  0  0  0  0  0  0  0  0  0
   -0.7500    3.8971    0.0000 C   0  0  0  0  0  0  0  0  0  0  0  0
   -2.2500    3.8971    0.0000 C   0  0  0  0  0  0  0  0  0  0  0  0
   -3.0000    5.1962    0.0000 O   0  0  0  0  0  0  0  0  0  0  0  0
   -2.2500    6.4952    0.0000 C   0  0  0  0  0  0  0  0  0  0  0  0
   -3.0000    2.5981    0.0000 C   0  0  0  0  0  0  0  0  0  0  0  0
   -2.2500    1.2990    0.0000 C   0  0  0  0  0  0  0  0  0  0  0  0
   -0.7500   -1.2990    0.0000 C   0  0  0  0  0  0  0  0  0  0  0  0
   -2.2500   -1.2990    0.0000 C   0  0  0  0  0  0  0  0  0  0  0  0
   -3.0000   -2.5981    0.0000 C   0  0  0  0  0  0  0  0  0  0  0  0
   -2.2500   -3.8971    0.0000 C   0  0  0  0  0  0  0  0  0  0  0  0
   -3.0000   -5.1962    0.0000 O   0  0  0  0  0  0  0  0  0  0  0  0
   -4.5000   -5.1962    0.0000 C   0  0  0  0  0  0  0  0  0  0  0  0
   -0.7500   -3.8971    0.0000 C   0  0  0  0  0  0  0  0  0  0  0  0
   -0.0000   -2.5981    0.0000 C   0  0  0  0  0  0  0  0  0  0  0  0
    2.2500    1.2990    0.0000 C   0  0  0  0  0  0  0  0  0  0  0  0
    3.7500    1.2990    0.0000 C   0  0  0  0  0  0  0  0  0  0  0  0
  1  2  1  0
  2  3  1  0
  3  4  2  0
  4  5  1  0
  5  6  2  0
  6  7  1  0
  7  8  1  0
  8  9  2  0
  9 10  1  0
 10 11  2  0
 11 12  1  0
 12 13  1  0
 11 14  1  0
 14 15  2  0
  7 16  1  0
 16 17  2  0
 17 18  1  0
 18 19  2  0
 19 20  1  0
 20 21  1  0
 19 22  1  0
 22 23  2  0
  6 24  1  0
 24 25  2  0
 25  3  1  0
 15  8  1  0
 23 16  1  0
M  END
>  <linear_selectivity>  (378) 
28

>  <denticity>  (378) 
1

>  <ligand_class>  (378) 
phosphine

$$$$
P(4-MeO-Ph)3_100C_THF
     RDKit          2D

 25 27  0  0  0  0  0  0  0  0999 V2000
    6.7500   -1.2990    0.0000 C   0  0  0  0  0  0  0  0  0  0  0  0
    6.0000   -0.0000    0.0000 O   0  0  0  0  0  0  0  0  0  0  0  0
    4.5000   -0.0000    0.0000 C   0  0  0  0  0  0  0  0  0  0  0  0
    3.7500   -1.2990    0.0000 C   0  0  0  0  0  0  0  0  0  0  0  0
    2.2500   -1.2990    0.0000 C   0  0  0  0  0  0  0  0  0  0  0  0
    1.5000   -0.0000    0.0000 C   0  0  0  0  0  0  0  0  0  0  0  0
    0.0000   -0.0000    0.0000 P   0  0  0  0  0  0  0  0  0  0  0  0
   -0.7500    1.2990    0.0000 C   0  0  0  0  0  0  0  0  0  0  0  0
    0.0000    2.5981    0.0000 C   0  0  0  0  0  0  0  0  0  0  0  0
   -0.7500    3.8971    0.0000 C   0  0  0  0  0  0  0  0  0  0  0  0
   -2.2500    3.8971    0.0000 C   0  0  0  0  0  0  0  0  0  0  0  0
   -3.0000    5.1962    0.0000 O   0  0  0  0  0  0  0  0  0  0  0  0
   -2.2500    6.4952    0.0000 C   0  0  0  0  0  0  0  0  0  0  0  0
   -3.0000    2.5981    0.0000 C   0  0  0  0  0  0  0  0  0  0  0  0
   -2.2500    1.2990    0.0000 C   0  0  0  0  0  0  0  0  0  0  0  0
   -0.7500   -1.2990    0.0000 C   0  0  0  0  0  0  0  0  0  0  0  0
   -2.2500   -1.2990    0.0000 C   0  0  0  0  0  0  0  0  0  0  0  0
   -3.0000   -2.5981    0.0000 C   0  0  0  0  0  0  0  0  0  0  0  0
   -2.2500   -3.8971    0.0000 C   0  0  0  0  0  0  0  0  0  0  0  0
   -3.0000   -5.1962    0.0000 O   0  0  0  0  0  0  0  0  0  0  0  0
   -4.5000   -5.1962    0.0000 C   0  0  0  0  0  0  0  0  0  0  0  0
   -0.7500   -3.8971    0.0000 C   0  0  0  0  0  0  0  0  0  0  0  0
   -0.0000   -2.5981    0.0000 C   0  0  0  0  0  0  0  0  0  0  0  0
    2.2500    1.2990    0.0000 C   0  0  0  0  0  0  0  0  0  0  0  0
    3.7500    1.2990    0.0000 C   0  0  0  0  0  0  0  0  0  0  0  0
  1  2  1  0
  2  3  1  0
  3  4  2  0
  4  5  1  0
  5  6  2  0
  6  7  1  0
  7  8  1  0
  8  9  2  0
  9 10  1  0
 10 11  2  0
 11 12  1  0
 12 13  1  0
 11 14  1  0
 14 15  2  0
  7 16  1  0
 16 17  2  0
 17 18  1  0
 18 19  2  0
 19 20  1  0
 20 21  1  0
 19 22  1  0
 22 23  2  0
  6 24  1  0
 24 25  2  0
 25  3  1  0
 15  8  1  0
 23 16  1  0
M  END
>  <linear_selectivity>  (379) 
29

>  <denticity>  (379) 
1

>  <ligand_class>  (379) 
phosphine

$$$$
P(4-MeO-Ph)3_100C_dioxane
     RDKit          2D

 25 27  0  0  0  0  0  0  0  0999 V2000
    6.7500   -1.2990    0.0000 C   0  0  0  0  0  0  0  0  0  0  0  0
    6.0000   -0.0000    0.0000 O   0  0  0  0  0  0  0  0  0  0  0  0
    4.5000   -0.0000    0.0000 C   0  0  0  0  0  0  0  0  0  0  0  0
    3.7500   -1.2990    0.0000 C   0  0  0  0  0  0  0  0  0  0  0  0
    2.2500   -1.2990    0.0000 C   0  0  0  0  0  0  0  0  0  0  0  0
    1.5000   -0.0000    0.0000 C   0  0  0  0  0  0  0  0  0  0  0  0
    0.0000   -0.0000    0.0000 P   0  0  0  0  0  0  0  0  0  0  0  0
   -0.7500    1.2990    0.0000 C   0  0  0  0  0  0  0  0  0  0  0  0
    0.0000    2.5981    0.0000 C   0  0  0  0  0  0  0  0  0  0  0  0
   -0.7500    3.8971    0.0000 C   0  0  0  0  0  0  0  0  0  0  0  0
   -2.2500    3.8971    0.0000 C   0  0  0  0  0  0  0  0  0  0  0  0
   -3.0000    5.1962    0.0000 O   0  0  0  0  0  0  0  0  0  0  0  0
   -2.2500    6.4952    0.0000 C   0  0  0  0  0  0  0  0  0  0  0  0
   -3.0000    2.5981    0.0000 C   0  0  0  0  0  0  0  0  0  0  0  0
   -2.2500    1.2990    0.0000 C   0  0  0  0  0  0  0  0  0  0  0  0
   -0.7500   -1.2990    0.0000 C   0  0  0  0  0  0  0  0  0  0  0  0
   -2.2500   -1.2990    0.0000 C   0  0  0  0  0  0  0  0  0  0  0  0
   -3.0000   -2.5981    0.0000 C   0  0  0  0  0  0  0  0  0  0  0  0
   -2.2500   -3.8971    0.0000 C   0  0  0  0  0  0  0  0  0  0  0  0
   -3.0000   -5.1962    0.0000 O   0  0  0  0  0  0  0  0  0  0  0  0
   -4.5000   -5.1962    0.0000 C   0  0  0  0  0  0  0  0  0  0  0  0
   -0.7500   -3.8971    0.0000 C   0  0  0  0  0  0  0  0  0  0  0  0
   -0.0000   -2.5981    0.0000 C   0  0  0  0  0  0  0  0  0  0  0  0
    2.2500    1.2990    0.0000 C   0  0  0  0  0  0  0  0  0  0  0  0
    3.7500    1.2990    0.0000 C   0  0  0  0  0  0  0  0  0  0  0  0
  1  2  1  0
  2  3  1  0
  3  4  2  0
  4  5  1  0
  5  6  2  0
  6  7  1  0
  7  8  1  0
  8  9  2  0
  9 10  1  0
 10 11  2  0
 11 12  1  0
 12 13  1  0
 11 14  1  0
 14 15  2  0
  7 16  1  0
 16 17  2  0
 17 18  1  0
 18 19  2  0
 19 20  1  0
 20 21  1  0
 19 22  1  0
 22 23  2  0
  6 24  1  0
 24 25  2  0
 25  3  1  0
 15  8  1  0
 23 16  1  0
M  END
>  <linear_selectivity>  (380) 
27

>  <denticity>  (380) 
1

>  <ligand_class>  (380) 
phosphine

$$$$
P(4-MeO-Ph)3_100C_hexane
     RDKit          2D

 25 27  0  0  0  0  0  0  0  0999 V2000
    6.7500   -1.2990    0.0000 C   0  0  0  0  0  0  0  0  0  0  0  0
    6.0000   -0.0000    0.0000 O   0  0  0  0  0  0  0  0  0  0  0  0
    4.5000   -0.0000    0.0000 C   0  0  0  0  0  0  0  0  0  0  0  0
    3.7500   -1.2990    0.0000 C   0  0  0  0  0  0  0  0  0  0  0  0
    2.2500   -1.2990    0.0000 C   0  0  0  0  0  0  0  0  0  0  0  0
    1.5000   -0.0000    0.0000 C   0  0  0  0  0  0  0  0  0  0  0  0
    0.0000   -0.0000    0.0000 P   0  0  0  0  0  0  0  0  0  0  0  0
   -0.7500    1.2990    0.0000 C   0  0  0  0  0  0  0  0  0  0  0  0
    0.0000    2.5981    0.0000 C   0  0  0  0  0  0  0  0  0  0  0  0
   -0.7500    3.8971    0.0000 C   0  0  0  0  0  0  0  0  0  0  0  0
   -2.2500    3.8971    0.0000 C   0  0  0  0  0  0  0  0  0  0  0  0
   -3.0000    5.1962    0.0000 O   0  0  0  0  0  0  0  0  0  0  0  0
   -2.2500    6.4952    0.0000 C   0  0  0  0  0  0  0  0  0  0  0  0
   -3.0000    2.5981    0.0000 C   0  0  0  0  0  0  0  0  0  0  0  0
   -2.2500    1.2990    0.0000 C   0  0  0  0  0  0  0  0  0  0  0  0
   -0.7500   -1.2990    0.0000 C   0  0  0  0  0  0  0  0  0  0  0  0
   -2.2500   -1.2990    0.0000 C   0  0  0  0  0  0  0  0  0  0  0  0
   -3.0000   -2.5981    0.0000 C   0  0  0  0  0  0  0  0  0  0  0  0
   -2.2500   -3.8971    0.0000 C   0  0  0  0  0  0  0  0  0  0  0  0
   -3.0000   -5.1962    0.0000 O   0  0  0  0  0  0  0  0  0  0  0  0
   -4.5000   -5.1962    0.0000 C   0  0  0  0  0  0  0  0  0  0  0  0
   -0.7500   -3.8971    0.0000 C   0  0  0  0  0  0  0  0  0  0  0  0
   -0.0000   -2.5981    0.0000 C   0  0  0  0  0  0  0  0  0  0  0  0
    2.2500    1.2990    0.0000 C   0  0  0  0  0  0  0  0  0  0  0  0
    3.7500    1.2990    0.0000 C   0  0  0  0  0  0  0  0  0  0  0  0
  1  2  1  0
  2  3  1  0
  3  4  2  0
  4  5  1  0
  5  6  2  0
  6  7  1  0
  7  8  1  0
  8  9  2  0
  9 10  1  0
 10 11  2  0
 11 12  1  0
 12 13  1  0
 11 14  1  0
 14 15  2  0
  7 16  1  0
 16 17  2  0
 17 18  1  0
 18 19  2  0
 19 20  1  0
 20 21  1  0
 19 22  1  0
 22 23  2  0
  6 24  1  0
 24 25  2  0
 25  3  1  0
 15  8  1  0
 23 16  1  0
M  END
>  <linear_selectivity>  (381) 
29

>  <denticity>  (381) 
1

>  <ligand_class>  (381) 
phosphine

$$$$
P(4-MeO-Ph)3_100C_benzene
     RDKit          2D

 25 27  0  0  0  0  0  0  0  0999 V2000
    6.7500   -1.2990    0.0000 C   0  0  0  0  0  0  0  0  0  0  0  0
    6.0000   -0.0000    0.0000 O   0  0  0  0  0  0  0  0  0  0  0  0
    4.5000   -0.0000    0.0000 C   0  0  0  0  0  0  0  0  0  0  0  0
    3.7500   -1.2990    0.0000 C   0  0  0  0  0  0  0  0  0  0  0  0
    2.2500   -1.2990    0.0000 C   0  0  0  0  0  0  0  0  0  0  0  0
    1.5000   -0.0000    0.0000 C   0  0  0  0  0  0  0  0  0  0  0  0
    0.0000   -0.0000    0.0000 P   0  0  0  0  0  0  0  0  0  0  0  0
   -0.7500    1.2990    0.0000 C   0  0  0  0  0  0  0  0  0  0  0  0
    0.0000    2.5981    0.0000 C   0  0  0  0  0  0  0  0  0  0  0  0
   -0.7500    3.8971    0.0000 C   0  0  0  0  0  0  0  0  0  0  0  0
   -2.2500    3.8971    0.0000 C   0  0  0  0  0  0  0  0  0  0  0  0
   -3.0000    5.1962    0.0000 O   0  0  0  0  0  0  0  0  0  0  0  0
   -2.2500    6.4952    0.0000 C   0  0  0  0  0  0  0  0  0  0  0  0
   -3.0000    2.5981    0.0000 C   0  0  0  0  0  0  0  0  0  0  0  0
   -2.2500    1.2990    0.0000 C   0  0  0  0  0  0  0  0  0  0  0  0
   -0.7500   -1.2990    0.0000 C   0  0  0  0  0  0  0  0  0  0  0  0
   -2.2500   -1.2990    0.0000 C   0  0  0  0  0  0  0  0  0  0  0  0
   -3.0000   -2.5981    0.0000 C   0  0  0  0  0  0  0  0  0  0  0  0
   -2.2500   -3.8971    0.0000 C   0  0  0  0  0  0  0  0  0  0  0  0
   -3.0000   -5.1962    0.0000 O   0  0  0  0  0  0  0  0  0  0  0  0
   -4.5000   -5.1962    0.0000 C   0  0  0  0  0  0  0  0  0  0  0  0
   -0.7500   -3.8971    0.0000 C   0  0  0  0  0  0  0  0  0  0  0  0
   -0.0000   -2.5981    0.0000 C   0  0  0  0  0  0  0  0  0  0  0  0
    2.2500    1.2990    0.0000 C   0  0  0  0  0  0  0  0  0  0  0  0
    3.7500    1.2990    0.0000 C   0  0  0  0  0  0  0  0  0  0  0  0
  1  2  1  0
  2  3  1  0
  3  4  2  0
  4  5  1  0
  5  6  2  0
  6  7  1  0
  7  8  1  0
  8  9  2  0
  9 10  1  0
 10 11  2  0
 11 12  1  0
 12 13  1  0
 11 14  1  0
 14 15  2  0
  7 16  1  0
 16 17  2  0
 17 18  1  0
 18 19  2  0
 19 20  1  0
 20 21  1  0
 19 22  1  0
 22 23  2  0
  6 24  1  0
 24 25  2  0
 25  3  1  0
 15  8  1  0
 23 16  1  0
M  END
>  <linear_selectivity>  (382) 
31

>  <denticity>  (382) 
1

>  <ligand_class>  (382) 
phosphine

$$$$
P(4-MeO-Ph)3_120C_toluene
     RDKit          2D

 25 27  0  0  0  0  0  0  0  0999 V2000
    6.7500   -1.2990    0.0000 C   0  0  0  0  0  0  0  0  0  0  0  0
    6.0000   -0.0000    0.0000 O   0  0  0  0  0  0  0  0  0  0  0  0
    4.5000   -0.0000    0.0000 C   0  0  0  0  0  0  0  0  0  0  0  0
    3.7500   -1.2990    0.0000 C   0  0  0  0  0  0  0  0  0  0  0  0
    2.2500   -1.2990    0.0000 C   0  0  0  0  0  0  0  0  0  0  0  0
    1.5000   -0.0000    0.0000 C   0  0  0  0  0  0  0  0  0  0  0  0
    0.0000   -0.0000    0.0000 P   0  0  0  0  0  0  0  0  0  0  0  0
   -0.7500    1.2990    0.0000 C   0  0  0  0  0  0  0  0  0  0  0  0
    0.0000    2.5981    0.0000 C   0  0  0  0  0  0  0  0  0  0  0  0
   -0.7500    3.8971    0.0000 C   0  0  0  0  0  0  0  0  0  0  0  0
   -2.2500    3.8971    0.0000 C   0  0  0  0  0  0  0  0  0  0  0  0
   -3.0000    5.1962    0.0000 O   0  0  0  0  0  0  0  0  0  0  0  0
   -2.2500    6.4952    0.0000 C   0  0  0  0  0  0  0  0  0  0  0  0
   -3.0000    2.5981    0.0000 C   0  0  0  0  0  0  0  0  0  0  0  0
   -2.2500    1.2990    0.0000 C   0  0  0  0  0  0  0  0  0  0  0  0
   -0.7500   -1.2990    0.0000 C   0  0  0  0  0  0  0  0  0  0  0  0
   -2.2500   -1.2990    0.0000 C   0  0  0  0  0  0  0  0  0  0  0  0
   -3.0000   -2.5981    0.0000 C   0  0  0  0  0  0  0  0  0  0  0  0
   -2.2500   -3.8971    0.0000 C   0  0  0  0  0  0  0  0  0  0  0  0
   -3.0000   -5.1962    0.0000 O   0  0  0  0  0  0  0  0  0  0  0  0
   -4.5000   -5.1962    0.0000 C   0  0  0  0  0  0  0  0  0  0  0  0
   -0.7500   -3.8971    0.0000 C   0  0  0  0  0  0  0  0  0  0  0  0
   -0.0000   -2.5981    0.0000 C   0  0  0  0  0  0  0  0  0  0  0  0
    2.2500    1.2990    0.0000 C   0  0  0  0  0  0  0  0  0  0  0  0
    3.7500    1.2990    0.0000 C   0  0  0  0  0  0  0  0  0  0  0  0
  1  2  1  0
  2  3  1  0
  3  4  2  0
  4  5  1  0
  5  6  2  0
  6  7  1  0
  7  8  1  0
  8  9  2  0
  9 10  1  0
 10 11  2  0
 11 12  1  0
 12 13  1  0
 11 14  1  0
 14 15  2  0
  7 16  1  0
 16 17  2  0
 17 18  1  0
 18 19  2  0
 19 20  1  0
 20 21  1  0
 19 22  1  0
 22 23  2  0
  6 24  1  0
 24 25  2  0
 25  3  1  0
 15  8  1  0
 23 16  1  0
M  END
>  <linear_selectivity>  (383) 
23

>  <denticity>  (383) 
1

>  <ligand_class>  (383) 
phosphine

$$$$
P(4-MeO-Ph)3_120C_THF
     RDKit          2D

 25 27  0  0  0  0  0  0  0  0999 V2000
    6.7500   -1.2990    0.0000 C   0  0  0  0  0  0  0  0  0  0  0  0
    6.0000   -0.0000    0.0000 O   0  0  0  0  0  0  0  0  0  0  0  0
    4.5000   -0.0000    0.0000 C   0  0  0  0  0  0  0  0  0  0  0  0
    3.7500   -1.2990    0.0000 C   0  0  0  0  0  0  0  0  0  0  0  0
    2.2500   -1.2990    0.0000 C   0  0  0  0  0  0  0  0  0  0  0  0
    1.5000   -0.0000    0.0000 C   0  0  0  0  0  0  0  0  0  0  0  0
    0.0000   -0.0000    0.0000 P   0  0  0  0  0  0  0  0  0  0  0  0
   -0.7500    1.2990    0.0000 C   0  0  0  0  0  0  0  0  0  0  0  0
    0.0000    2.5981    0.0000 C   0  0  0  0  0  0  0  0  0  0  0  0
   -0.7500    3.8971    0.0000 C   0  0  0  0  0  0  0  0  0  0  0  0
   -2.2500    3.8971    0.0000 C   0  0  0  0  0  0  0  0  0  0  0  0
   -3.0000    5.1962    0.0000 O   0  0  0  0  0  0  0  0  0  0  0  0
   -2.2500    6.4952    0.0000 C   0  0  0  0  0  0  0  0  0  0  0  0
   -3.0000    2.5981    0.0000 C   0  0  0  0  0  0  0  0  0  0  0  0
   -2.2500    1.2990    0.0000 C   0  0  0  0  0  0  0  0  0  0  0  0
   -0.7500   -1.2990    0.0000 C   0  0  0  0  0  0  0  0  0  0  0  0
   -2.2500   -1.2990    0.0000 C   0  0  0  0  0  0  0  0  0  0  0  0
   -3.0000   -2.5981    0.0000 C   0  0  0  0  0  0  0  0  0  0  0  0
   -2.2500   -3.8971    0.0000 C   0  0  0  0  0  0  0  0  0  0  0  0
   -3.0000   -5.1962    0.0000 O   0  0  0  0  0  0  0  0  0  0  0  0
   -4.5000   -5.1962    0.0000 C   0  0  0  0  0  0  0  0  0  0  0  0
   -0.7500   -3.8971    0.0000 C   0  0  0  0  0  0  0  0  0  0  0  0
   -0.0000   -2.5981    0.0000 C   0  0  0  0  0  0  0  0  0  0  0  0
    2.2500    1.2990    0.0000 C   0  0  0  0  0  0  0  0  0  0  0  0
    3.7500    1.2990    0.0000 C   0  0  0  0  0  0  0  0  0  0  0  0
  1  2  1  0
  2  3  1  0
  3  4  2  0
  4  5  1  0
  5  6  2  0
  6  7  1  0
  7  8  1  0
  8  9  2  0
  9 10  1  0
 10 11  2  0
 11 12  1  0
 12 13  1  0
 11 14  1  0
 14 15  2  0
  7 16  1  0
 16 17  2  0
 17 18  1  0
 18 19  2  0
 19 20  1  0
 20 21  1  0
 19 22  1  0
 22 23  2  0
  6 24  1  0
 24 25  2  0
 25  3  1  0
 15  8  1  0
 23 16  1  0
M  END
>  <linear_selectivity>  (384) 
26

>  <denticity>  (384) 
1

>  <ligand_class>  (384) 
phosphine

$$$$
P(4-MeO-Ph)3_120C_hexane
     RDKit          2D

 25 27  0  0  0  0  0  0  0  0999 V2000
    6.7500   -1.2990    0.0000 C   0  0  0  0  0  0  0  0  0  0  0  0
    6.0000   -0.0000    0.0000 O   0  0  0  0  0  0  0  0  0  0  0  0
    4.5000   -0.0000    0.0000 C   0  0  0  0  0  0  0  0  0  0  0  0
    3.7500   -1.2990    0.0000 C   0  0  0  0  0  0  0  0  0  0  0  0
    2.2500   -1.2990    0.0000 C   0  0  0  0  0  0  0  0  0  0  0  0
    1.5000   -0.0000    0.0000 C   0  0  0  0  0  0  0  0  0  0  0  0
    0.0000   -0.0000    0.0000 P   0  0  0  0  0  0  0  0  0  0  0  0
   -0.7500    1.2990    0.0000 C   0  0  0  0  0  0  0  0  0  0  0  0
    0.0000    2.5981    0.0000 C   0  0  0  0  0  0  0  0  0  0  0  0
   -0.7500    3.8971    0.0000 C   0  0  0  0  0  0  0  0  0  0  0  0
   -2.2500    3.8971    0.0000 C   0  0  0  0  0  0  0  0  0  0  0  0
   -3.0000    5.1962    0.0000 O   0  0  0  0  0  0  0  0  0  0  0  0
   -2.2500    6.4952    0.0000 C   0  0  0  0  0  0  0  0  0  0  0  0
   -3.0000    2.5981    0.0000 C   0  0  0  0  0  0  0  0  0  0  0  0
   -2.2500    1.2990    0.0000 C   0  0  0  0  0  0  0  0  0  0  0  0
   -0.7500   -1.2990    0.0000 C   0  0  0  0  0  0  0  0  0  0  0  0
   -2.2500   -1.2990    0.0000 C   0  0  0  0  0  0  0  0  0  0  0  0
   -3.0000   -2.5981    0.0000 C   0  0  0  0  0  0  0  0  0  0  0  0
   -2.2500   -3.8971    0.0000 C   0  0  0  0  0  0  0  0  0  0  0  0
   -3.0000   -5.1962    0.0000 O   0  0  0  0  0  0  0  0  0  0  0  0
   -4.5000   -5.1962    0.0000 C   0  0  0  0  0  0  0  0  0  0  0  0
   -0.7500   -3.8971    0.0000 C   0  0  0  0  0  0  0  0  0  0  0  0
   -0.0000   -2.5981    0.0000 C   0  0  0  0  0  0  0  0  0  0  0  0
    2.2500    1.2990    0.0000 C   0  0  0  0  0  0  0  0  0  0  0  0
    3.7500    1.2990    0.0000 C   0  0  0  0  0  0  0  0  0  0  0  0
  1  2  1  0
  2  3  1  0
  3  4  2  0
  4  5  1  0
  5  6  2  0
  6  7  1  0
  7  8  1  0
  8  9  2  0
  9 10  1  0
 10 11  2  0
 11 12  1  0
 12 13  1  0
 11 14  1  0
 14 15  2  0
  7 16  1  0
 16 17  2  0
 17 18  1  0
 18 19  2  0
 19 20  1  0
 20 21  1  0
 19 22  1  0
 22 23  2  0
  6 24  1  0
 24 25  2  0
 25  3  1  0
 15  8  1  0
 23 16  1  0
M  END
>  <linear_selectivity>  (385) 
27

>  <denticity>  (385) 
1

>  <ligand_class>  (385) 
phosphine

$$$$
P(4-MeO-Ph)3_130C_THF
     RDKit          2D

 25 27  0  0  0  0  0  0  0  0999 V2000
    6.7500   -1.2990    0.0000 C   0  0  0  0  0  0  0  0  0  0  0  0
    6.0000   -0.0000    0.0000 O   0  0  0  0  0  0  0  0  0  0  0  0
    4.5000   -0.0000    0.0000 C   0  0  0  0  0  0  0  0  0  0  0  0
    3.7500   -1.2990    0.0000 C   0  0  0  0  0  0  0  0  0  0  0  0
    2.2500   -1.2990    0.0000 C   0  0  0  0  0  0  0  0  0  0  0  0
    1.5000   -0.0000    0.0000 C   0  0  0  0  0  0  0  0  0  0  0  0
    0.0000   -0.0000    0.0000 P   0  0  0  0  0  0  0  0  0  0  0  0
   -0.7500    1.2990    0.0000 C   0  0  0  0  0  0  0  0  0  0  0  0
    0.0000    2.5981    0.0000 C   0  0  0  0  0  0  0  0  0  0  0  0
   -0.7500    3.8971    0.0000 C   0  0  0  0  0  0  0  0  0  0  0  0
   -2.2500    3.8971    0.0000 C   0  0  0  0  0  0  0  0  0  0  0  0
   -3.0000    5.1962    0.0000 O   0  0  0  0  0  0  0  0  0  0  0  0
   -2.2500    6.4952    0.0000 C   0  0  0  0  0  0  0  0  0  0  0  0
   -3.0000    2.5981    0.0000 C   0  0  0  0  0  0  0  0  0  0  0  0
   -2.2500    1.2990    0.0000 C   0  0  0  0  0  0  0  0  0  0  0  0
   -0.7500   -1.2990    0.0000 C   0  0  0  0  0  0  0  0  0  0  0  0
   -2.2500   -1.2990    0.0000 C   0  0  0  0  0  0  0  0  0  0  0  0
   -3.0000   -2.5981    0.0000 C   0  0  0  0  0  0  0  0  0  0  0  0
   -2.2500   -3.8971    0.0000 C   0  0  0  0  0  0  0  0  0  0  0  0
   -3.0000   -5.1962    0.0000 O   0  0  0  0  0  0  0  0  0  0  0  0
   -4.5000   -5.1962    0.0000 C   0  0  0  0  0  0  0  0  0  0  0  0
   -0.7500   -3.8971    0.0000 C   0  0  0  0  0  0  0  0  0  0  0  0
   -0.0000   -2.5981    0.0000 C   0  0  0  0  0  0  0  0  0  0  0  0
    2.2500    1.2990    0.0000 C   0  0  0  0  0  0  0  0  0  0  0  0
    3.7500    1.2990    0.0000 C   0  0  0  0  0  0  0  0  0  0  0  0
  1  2  1  0
  2  3  1  0
  3  4  2  0
  4  5  1  0
  5  6  2  0
  6  7  1  0
  7  8  1  0
  8  9  2  0
  9 10  1  0
 10 11  2  0
 11 12  1  0
 12 13  1  0
 11 14  1  0
 14 15  2  0
  7 16  1  0
 16 17  2  0
 17 18  1  0
 18 19  2  0
 19 20  1  0
 20 21  1  0
 19 22  1  0
 22 23  2  0
  6 24  1  0
 24 25  2  0
 25  3  1  0
 15  8  1  0
 23 16  1  0
M  END
>  <linear_selectivity>  (386) 
22

>  <denticity>  (386) 
1

>  <ligand_class>  (386) 
phosphine

$$$$
P(4-MeO-Ph)3_130C_dioxane
     RDKit          2D

 25 27  0  0  0  0  0  0  0  0999 V2000
    6.7500   -1.2990    0.0000 C   0  0  0  0  0  0  0  0  0  0  0  0
    6.0000   -0.0000    0.0000 O   0  0  0  0  0  0  0  0  0  0  0  0
    4.5000   -0.0000    0.0000 C   0  0  0  0  0  0  0  0  0  0  0  0
    3.7500   -1.2990    0.0000 C   0  0  0  0  0  0  0  0  0  0  0  0
    2.2500   -1.2990    0.0000 C   0  0  0  0  0  0  0  0  0  0  0  0
    1.5000   -0.0000    0.0000 C   0  0  0  0  0  0  0  0  0  0  0  0
    0.0000   -0.0000    0.0000 P   0  0  0  0  0  0  0  0  0  0  0  0
   -0.7500    1.2990    0.0000 C   0  0  0  0  0  0  0  0  0  0  0  0
    0.0000    2.5981    0.0000 C   0  0  0  0  0  0  0  0  0  0  0  0
   -0.7500    3.8971    0.0000 C   0  0  0  0  0  0  0  0  0  0  0  0
   -2.2500    3.8971    0.0000 C   0  0  0  0  0  0  0  0  0  0  0  0
   -3.0000    5.1962    0.0000 O   0  0  0  0  0  0  0  0  0  0  0  0
   -2.2500    6.4952    0.0000 C   0  0  0  0  0  0  0  0  0  0  0  0
   -3.0000    2.5981    0.0000 C   0  0  0  0  0  0  0  0  0  0  0  0
   -2.2500    1.2990    0.0000 C   0  0  0  0  0  0  0  0  0  0  0  0
   -0.7500   -1.2990    0.0000 C   0  0  0  0  0  0  0  0  0  0  0  0
   -2.2500   -1.2990    0.0000 C   0  0  0  0  0  0  0  0  0  0  0  0
   -3.0000   -2.5981    0.0000 C   0  0  0  0  0  0  0  0  0  0  0  0
   -2.2500   -3.8971    0.0000 C   0  0  0  0  0  0  0  0  0  0  0  0
   -3.0000   -5.1962    0.0000 O   0  0  0  0  0  0  0  0  0  0  0  0
   -4.5000   -5.1962    0.0000 C   0  0  0  0  0  0  0  0  0  0  0  0
   -0.7500   -3.8971    0.0000 C   0  0  0  0  0  0  0  0  0  0  0  0
   -0.0000   -2.5981    0.0000 C   0  0  0  0  0  0  0  0  0  0  0  0
    2.2500    1.2990    0.0000 C   0  0  0  0  0  0  0  0  0  0  0  0
    3.7500    1.2990    0.0000 C   0  0  0  0  0  0  0  0  0  0  0  0
  1  2  1  0
  2  3  1  0
  3  4  2  0
  4  5  1  0
  5  6  2  0
  6  7  1  0
  7  8  1  0
  8  9  2  0
  9 10  1  0
 10 11  2  0
 11 12  1  0
 12 13  1  0
 11 14  1  0
 14 15  2  0
  7 16  1  0
 16 17  2  0
 17 18  1  0
 18 19  2  0
 19 20  1  0
 20 21  1  0
 19 22  1  0
 22 23  2  0
  6 24  1  0
 24 25  2  0
 25  3  1  0
 15  8  1  0
 23 16  1  0
M  END
>  <linear_selectivity>  (387) 
22

>  <denticity>  (387) 
1

>  <ligand_class>  (387) 
phosphine

$$$$
P(4-MeO-Ph)3_130C_hexane
     RDKit          2D

 25 27  0  0  0  0  0  0  0  0999 V2000
    6.7500   -1.2990    0.0000 C   0  0  0  0  0  0  0  0  0  0  0  0
    6.0000   -0.0000    0.0000 O   0  0  0  0  0  0  0  0  0  0  0  0
    4.5000   -0.0000    0.0000 C   0  0  0  0  0  0  0  0  0  0  0  0
    3.7500   -1.2990    0.0000 C   0  0  0  0  0  0  0  0  0  0  0  0
    2.2500   -1.2990    0.0000 C   0  0  0  0  0  0  0  0  0  0  0  0
    1.5000   -0.0000    0.0000 C   0  0  0  0  0  0  0  0  0  0  0  0
    0.0000   -0.0000    0.0000 P   0  0  0  0  0  0  0  0  0  0  0  0
   -0.7500    1.2990    0.0000 C   0  0  0  0  0  0  0  0  0  0  0  0
    0.0000    2.5981    0.0000 C   0  0  0  0  0  0  0  0  0  0  0  0
   -0.7500    3.8971    0.0000 C   0  0  0  0  0  0  0  0  0  0  0  0
   -2.2500    3.8971    0.0000 C   0  0  0  0  0  0  0  0  0  0  0  0
   -3.0000    5.1962    0.0000 O   0  0  0  0  0  0  0  0  0  0  0  0
   -2.2500    6.4952    0.0000 C   0  0  0  0  0  0  0  0  0  0  0  0
   -3.0000    2.5981    0.0000 C   0  0  0  0  0  0  0  0  0  0  0  0
   -2.2500    1.2990    0.0000 C   0  0  0  0  0  0  0  0  0  0  0  0
   -0.7500   -1.2990    0.0000 C   0  0  0  0  0  0  0  0  0  0  0  0
   -2.2500   -1.2990    0.0000 C   0  0  0  0  0  0  0  0  0  0  0  0
   -3.0000   -2.5981    0.0000 C   0  0  0  0  0  0  0  0  0  0  0  0
   -2.2500   -3.8971    0.0000 C   0  0  0  0  0  0  0  0  0  0  0  0
   -3.0000   -5.1962    0.0000 O   0  0  0  0  0  0  0  0  0  0  0  0
   -4.5000   -5.1962    0.0000 C   0  0  0  0  0  0  0  0  0  0  0  0
   -0.7500   -3.8971    0.0000 C   0  0  0  0  0  0  0  0  0  0  0  0
   -0.0000   -2.5981    0.0000 C   0  0  0  0  0  0  0  0  0  0  0  0
    2.2500    1.2990    0.0000 C   0  0  0  0  0  0  0  0  0  0  0  0
    3.7500    1.2990    0.0000 C   0  0  0  0  0  0  0  0  0  0  0  0
  1  2  1  0
  2  3  1  0
  3  4  2  0
  4  5  1  0
  5  6  2  0
  6  7  1  0
  7  8  1  0
  8  9  2  0
  9 10  1  0
 10 11  2  0
 11 12  1  0
 12 13  1  0
 11 14  1  0
 14 15  2  0
  7 16  1  0
 16 17  2  0
 17 18  1  0
 18 19  2  0
 19 20  1  0
 20 21  1  0
 19 22  1  0
 22 23  2  0
  6 24  1  0
 24 25  2  0
 25  3  1  0
 15  8  1  0
 23 16  1  0
M  END
>  <linear_selectivity>  (388) 
25

>  <denticity>  (388) 
1

>  <ligand_class>  (388) 
phosphine

$$$$
P(4-MeO-Ph)3_130C_benzene
     RDKit          2D

 25 27  0  0  0  0  0  0  0  0999 V2000
    6.7500   -1.2990    0.0000 C   0  0  0  0  0  0  0  0  0  0  0  0
    6.0000   -0.0000    0.0000 O   0  0  0  0  0  0  0  0  0  0  0  0
    4.5000   -0.0000    0.0000 C   0  0  0  0  0  0  0  0  0  0  0  0
    3.7500   -1.2990    0.0000 C   0  0  0  0  0  0  0  0  0  0  0  0
    2.2500   -1.2990    0.0000 C   0  0  0  0  0  0  0  0  0  0  0  0
    1.5000   -0.0000    0.0000 C   0  0  0  0  0  0  0  0  0  0  0  0
    0.0000   -0.0000    0.0000 P   0  0  0  0  0  0  0  0  0  0  0  0
   -0.7500    1.2990    0.0000 C   0  0  0  0  0  0  0  0  0  0  0  0
    0.0000    2.5981    0.0000 C   0  0  0  0  0  0  0  0  0  0  0  0
   -0.7500    3.8971    0.0000 C   0  0  0  0  0  0  0  0  0  0  0  0
   -2.2500    3.8971    0.0000 C   0  0  0  0  0  0  0  0  0  0  0  0
   -3.0000    5.1962    0.0000 O   0  0  0  0  0  0  0  0  0  0  0  0
   -2.2500    6.4952    0.0000 C   0  0  0  0  0  0  0  0  0  0  0  0
   -3.0000    2.5981    0.0000 C   0  0  0  0  0  0  0  0  0  0  0  0
   -2.2500    1.2990    0.0000 C   0  0  0  0  0  0  0  0  0  0  0  0
   -0.7500   -1.2990    0.0000 C   0  0  0  0  0  0  0  0  0  0  0  0
   -2.2500   -1.2990    0.0000 C   0  0  0  0  0  0  0  0  0  0  0  0
   -3.0000   -2.5981    0.0000 C   0  0  0  0  0  0  0  0  0  0  0  0
   -2.2500   -3.8971    0.0000 C   0  0  0  0  0  0  0  0  0  0  0  0
   -3.0000   -5.1962    0.0000 O   0  0  0  0  0  0  0  0  0  0  0  0
   -4.5000   -5.1962    0.0000 C   0  0  0  0  0  0  0  0  0  0  0  0
   -0.7500   -3.8971    0.0000 C   0  0  0  0  0  0  0  0  0  0  0  0
   -0.0000   -2.5981    0.0000 C   0  0  0  0  0  0  0  0  0  0  0  0
    2.2500    1.2990    0.0000 C   0  0  0  0  0  0  0  0  0  0  0  0
    3.7500    1.2990    0.0000 C   0  0  0  0  0  0  0  0  0  0  0  0
  1  2  1  0
  2  3  1  0
  3  4  2  0
  4  5  1  0
  5  6  2  0
  6  7  1  0
  7  8  1  0
  8  9  2  0
  9 10  1  0
 10 11  2  0
 11 12  1  0
 12 13  1  0
 11 14  1  0
 14 15  2  0
  7 16  1  0
 16 17  2  0
 17 18  1  0
 18 19  2  0
 19 20  1  0
 20 21  1  0
 19 22  1  0
 22 23  2  0
  6 24  1  0
 24 25  2  0
 25  3  1  0
 15  8  1  0
 23 16  1  0
M  END
>  <linear_selectivity>  (389) 
24

>  <denticity>  (389) 
1

>  <ligand_class>  (389) 
phosphine

$$$$
P(4-MeO-Ph)3_130C_xylene
     RDKit          2D

 25 27  0  0  0  0  0  0  0  0999 V2000
    6.7500   -1.2990    0.0000 C   0  0  0  0  0  0  0  0  0  0  0  0
    6.0000   -0.0000    0.0000 O   0  0  0  0  0  0  0  0  0  0  0  0
    4.5000   -0.0000    0.0000 C   0  0  0  0  0  0  0  0  0  0  0  0
    3.7500   -1.2990    0.0000 C   0  0  0  0  0  0  0  0  0  0  0  0
    2.2500   -1.2990    0.0000 C   0  0  0  0  0  0  0  0  0  0  0  0
    1.5000   -0.0000    0.0000 C   0  0  0  0  0  0  0  0  0  0  0  0
    0.0000   -0.0000    0.0000 P   0  0  0  0  0  0  0  0  0  0  0  0
   -0.7500    1.2990    0.0000 C   0  0  0  0  0  0  0  0  0  0  0  0
    0.0000    2.5981    0.0000 C   0  0  0  0  0  0  0  0  0  0  0  0
   -0.7500    3.8971    0.0000 C   0  0  0  0  0  0  0  0  0  0  0  0
   -2.2500    3.8971    0.0000 C   0  0  0  0  0  0  0  0  0  0  0  0
   -3.0000    5.1962    0.0000 O   0  0  0  0  0  0  0  0  0  0  0  0
   -2.2500    6.4952    0.0000 C   0  0  0  0  0  0  0  0  0  0  0  0
   -3.0000    2.5981    0.0000 C   0  0  0  0  0  0  0  0  0  0  0  0
   -2.2500    1.2990    0.0000 C   0  0  0  0  0  0  0  0  0  0  0  0
   -0.7500   -1.2990    0.0000 C   0  0  0  0  0  0  0  0  0  0  0  0
   -2.2500   -1.2990    0.0000 C   0  0  0  0  0  0  0  0  0  0  0  0
   -3.0000   -2.5981    0.0000 C   0  0  0  0  0  0  0  0  0  0  0  0
   -2.2500   -3.8971    0.0000 C   0  0  0  0  0  0  0  0  0  0  0  0
   -3.0000   -5.1962    0.0000 O   0  0  0  0  0  0  0  0  0  0  0  0
   -4.5000   -5.1962    0.0000 C   0  0  0  0  0  0  0  0  0  0  0  0
   -0.7500   -3.8971    0.0000 C   0  0  0  0  0  0  0  0  0  0  0  0
   -0.0000   -2.5981    0.0000 C   0  0  0  0  0  0  0  0  0  0  0  0
    2.2500    1.2990    0.0000 C   0  0  0  0  0  0  0  0  0  0  0  0
    3.7500    1.2990    0.0000 C   0  0  0  0  0  0  0  0  0  0  0  0
  1  2  1  0
  2  3  1  0
  3  4  2  0
  4  5  1  0
  5  6  2  0
  6  7  1  0
  7  8  1  0
  8  9  2  0
  9 10  1  0
 10 11  2  0
 11 12  1  0
 12 13  1  0
 11 14  1  0
 14 15  2  0
  7 16  1  0
 16 17  2  0
 17 18  1  0
 18 19  2  0
 19 20  1  0
 20 21  1  0
 19 22  1  0
 22 23  2  0
  6 24  1  0
 24 25  2  0
 25  3  1  0
 15  8  1  0
 23 16  1  0
M  END
>  <linear_selectivity>  (390) 
24

>  <denticity>  (390) 
1

>  <ligand_class>  (390) 
phosphine

$$$$
P(2-MeO-Ph)3
     RDKit          2D

 25 27  0  0  0  0  0  0  0  0999 V2000
    5.2500   -3.8971    0.0000 C   0  0  0  0  0  0  0  0  0  0  0  0
    4.5000   -2.5981    0.0000 O   0  0  0  0  0  0  0  0  0  0  0  0
    3.0000   -2.5981    0.0000 C   0  0  0  0  0  0  0  0  0  0  0  0
    2.2500   -3.8971    0.0000 C   0  0  0  0  0  0  0  0  0  0  0  0
    0.7500   -3.8971    0.0000 C   0  0  0  0  0  0  0  0  0  0  0  0
   -0.0000   -2.5981    0.0000 C   0  0  0  0  0  0  0  0  0  0  0  0
    0.7500   -1.2990    0.0000 C   0  0  0  0  0  0  0  0  0  0  0  0
    0.0000    0.0000    0.0000 P   0  0  0  0  0  0  0  0  0  0  0  0
    0.7500    1.2990    0.0000 C   0  0  0  0  0  0  0  0  0  0  0  0
    2.2500    1.2990    0.0000 C   0  0  0  0  0  0  0  0  0  0  0  0
    3.0000    2.5981    0.0000 C   0  0  0  0  0  0  0  0  0  0  0  0
    2.2500    3.8971    0.0000 C   0  0  0  0  0  0  0  0  0  0  0  0
    0.7500    3.8971    0.0000 C   0  0  0  0  0  0  0  0  0  0  0  0
    0.0000    5.1962    0.0000 O   0  0  0  0  0  0  0  0  0  0  0  0
    0.7500    6.4952    0.0000 C   0  0  0  0  0  0  0  0  0  0  0  0
    0.0000    2.5981    0.0000 C   0  0  0  0  0  0  0  0  0  0  0  0
   -1.5000    0.0000    0.0000 C   0  0  0  0  0  0  0  0  0  0  0  0
   -2.2500    1.2990    0.0000 C   0  0  0  0  0  0  0  0  0  0  0  0
   -3.7500    1.2990    0.0000 C   0  0  0  0  0  0  0  0  0  0  0  0
   -4.5000    0.0000    0.0000 C   0  0  0  0  0  0  0  0  0  0  0  0
   -3.7500   -1.2990    0.0000 C   0  0  0  0  0  0  0  0  0  0  0  0
   -4.5000   -2.5981    0.0000 O   0  0  0  0  0  0  0  0  0  0  0  0
   -6.0000   -2.5981    0.0000 C   0  0  0  0  0  0  0  0  0  0  0  0
   -2.2500   -1.2990    0.0000 C   0  0  0  0  0  0  0  0  0  0  0  0
    2.2500   -1.2990    0.0000 C   0  0  0  0  0  0  0  0  0  0  0  0
  1  2  1  0
  2  3  1  0
  3  4  2  0
  4  5  1  0
  5  6  2  0
  6  7  1  0
  7  8  1  0
  8  9  1  0
  9 10  2  0
 10 11  1  0
 11 12  2  0
 12 13  1  0
 13 14  1  0
 14 15  1  0
 13 16  2  0
  8 17  1  0
 17 18  2  0
 18 19  1  0
 19 20  2  0
 20 21  1  0
 21 22  1  0
 22 23  1  0
 21 24  2  0
  7 25  2  0
 25  3  1  0
 16  9  1  0
 24 17  1  0
M  END
>  <linear_selectivity>  (391) 
36

>  <denticity>  (391) 
1

>  <ligand_class>  (391) 
phosphine

$$$$
P(2-MeO-Ph)3_70C_toluene
     RDKit          2D

 25 27  0  0  0  0  0  0  0  0999 V2000
    5.2500   -3.8971    0.0000 C   0  0  0  0  0  0  0  0  0  0  0  0
    4.5000   -2.5981    0.0000 O   0  0  0  0  0  0  0  0  0  0  0  0
    3.0000   -2.5981    0.0000 C   0  0  0  0  0  0  0  0  0  0  0  0
    2.2500   -3.8971    0.0000 C   0  0  0  0  0  0  0  0  0  0  0  0
    0.7500   -3.8971    0.0000 C   0  0  0  0  0  0  0  0  0  0  0  0
   -0.0000   -2.5981    0.0000 C   0  0  0  0  0  0  0  0  0  0  0  0
    0.7500   -1.2990    0.0000 C   0  0  0  0  0  0  0  0  0  0  0  0
    0.0000    0.0000    0.0000 P   0  0  0  0  0  0  0  0  0  0  0  0
    0.7500    1.2990    0.0000 C   0  0  0  0  0  0  0  0  0  0  0  0
    2.2500    1.2990    0.0000 C   0  0  0  0  0  0  0  0  0  0  0  0
    3.0000    2.5981    0.0000 C   0  0  0  0  0  0  0  0  0  0  0  0
    2.2500    3.8971    0.0000 C   0  0  0  0  0  0  0  0  0  0  0  0
    0.7500    3.8971    0.0000 C   0  0  0  0  0  0  0  0  0  0  0  0
    0.0000    5.1962    0.0000 O   0  0  0  0  0  0  0  0  0  0  0  0
    0.7500    6.4952    0.0000 C   0  0  0  0  0  0  0  0  0  0  0  0
    0.0000    2.5981    0.0000 C   0  0  0  0  0  0  0  0  0  0  0  0
   -1.5000    0.0000    0.0000 C   0  0  0  0  0  0  0  0  0  0  0  0
   -2.2500    1.2990    0.0000 C   0  0  0  0  0  0  0  0  0  0  0  0
   -3.7500    1.2990    0.0000 C   0  0  0  0  0  0  0  0  0  0  0  0
   -4.5000    0.0000    0.0000 C   0  0  0  0  0  0  0  0  0  0  0  0
   -3.7500   -1.2990    0.0000 C   0  0  0  0  0  0  0  0  0  0  0  0
   -4.5000   -2.5981    0.0000 O   0  0  0  0  0  0  0  0  0  0  0  0
   -6.0000   -2.5981    0.0000 C   0  0  0  0  0  0  0  0  0  0  0  0
   -2.2500   -1.2990    0.0000 C   0  0  0  0  0  0  0  0  0  0  0  0
    2.2500   -1.2990    0.0000 C   0  0  0  0  0  0  0  0  0  0  0  0
  1  2  1  0
  2  3  1  0
  3  4  2  0
  4  5  1  0
  5  6  2  0
  6  7  1  0
  7  8  1  0
  8  9  1  0
  9 10  2  0
 10 11  1  0
 11 12  2  0
 12 13  1  0
 13 14  1  0
 14 15  1  0
 13 16  2  0
  8 17  1  0
 17 18  2  0
 18 19  1  0
 19 20  2  0
 20 21  1  0
 21 22  1  0
 22 23  1  0
 21 24  2  0
  7 25  2  0
 25  3  1  0
 16  9  1  0
 24 17  1  0
M  END
>  <linear_selectivity>  (392) 
39

>  <denticity>  (392) 
1

>  <ligand_class>  (392) 
phosphine

$$$$
P(2-MeO-Ph)3_70C_dioxane
     RDKit          2D

 25 27  0  0  0  0  0  0  0  0999 V2000
    5.2500   -3.8971    0.0000 C   0  0  0  0  0  0  0  0  0  0  0  0
    4.5000   -2.5981    0.0000 O   0  0  0  0  0  0  0  0  0  0  0  0
    3.0000   -2.5981    0.0000 C   0  0  0  0  0  0  0  0  0  0  0  0
    2.2500   -3.8971    0.0000 C   0  0  0  0  0  0  0  0  0  0  0  0
    0.7500   -3.8971    0.0000 C   0  0  0  0  0  0  0  0  0  0  0  0
   -0.0000   -2.5981    0.0000 C   0  0  0  0  0  0  0  0  0  0  0  0
    0.7500   -1.2990    0.0000 C   0  0  0  0  0  0  0  0  0  0  0  0
    0.0000    0.0000    0.0000 P   0  0  0  0  0  0  0  0  0  0  0  0
    0.7500    1.2990    0.0000 C   0  0  0  0  0  0  0  0  0  0  0  0
    2.2500    1.2990    0.0000 C   0  0  0  0  0  0  0  0  0  0  0  0
    3.0000    2.5981    0.0000 C   0  0  0  0  0  0  0  0  0  0  0  0
    2.2500    3.8971    0.0000 C   0  0  0  0  0  0  0  0  0  0  0  0
    0.7500    3.8971    0.0000 C   0  0  0  0  0  0  0  0  0  0  0  0
    0.0000    5.1962    0.0000 O   0  0  0  0  0  0  0  0  0  0  0  0
    0.7500    6.4952    0.0000 C   0  0  0  0  0  0  0  0  0  0  0  0
    0.0000    2.5981    0.0000 C   0  0  0  0  0  0  0  0  0  0  0  0
   -1.5000    0.0000    0.0000 C   0  0  0  0  0  0  0  0  0  0  0  0
   -2.2500    1.2990    0.0000 C   0  0  0  0  0  0  0  0  0  0  0  0
   -3.7500    1.2990    0.0000 C   0  0  0  0  0  0  0  0  0  0  0  0
   -4.5000    0.0000    0.0000 C   0  0  0  0  0  0  0  0  0  0  0  0
   -3.7500   -1.2990    0.0000 C   0  0  0  0  0  0  0  0  0  0  0  0
   -4.5000   -2.5981    0.0000 O   0  0  0  0  0  0  0  0  0  0  0  0
   -6.0000   -2.5981    0.0000 C   0  0  0  0  0  0  0  0  0  0  0  0
   -2.2500   -1.2990    0.0000 C   0  0  0  0  0  0  0  0  0  0  0  0
    2.2500   -1.2990    0.0000 C   0  0  0  0  0  0  0  0  0  0  0  0
  1  2  1  0
  2  3  1  0
  3  4  2  0
  4  5  1  0
  5  6  2  0
  6  7  1  0
  7  8  1  0
  8  9  1  0
  9 10  2  0
 10 11  1  0
 11 12  2  0
 12 13  1  0
 13 14  1  0
 14 15  1  0
 13 16  2  0
  8 17  1  0
 17 18  2  0
 18 19  1  0
 19 20  2  0
 20 21  1  0
 21 22  1  0
 22 23  1  0
 21 24  2  0
  7 25  2  0
 25  3  1  0
 16  9  1  0
 24 17  1  0
M  END
>  <linear_selectivity>  (393) 
35

>  <denticity>  (393) 
1

>  <ligand_class>  (393) 
phosphine

$$$$
P(2-MeO-Ph)3_70C_hexane
     RDKit          2D

 25 27  0  0  0  0  0  0  0  0999 V2000
    5.2500   -3.8971    0.0000 C   0  0  0  0  0  0  0  0  0  0  0  0
    4.5000   -2.5981    0.0000 O   0  0  0  0  0  0  0  0  0  0  0  0
    3.0000   -2.5981    0.0000 C   0  0  0  0  0  0  0  0  0  0  0  0
    2.2500   -3.8971    0.0000 C   0  0  0  0  0  0  0  0  0  0  0  0
    0.7500   -3.8971    0.0000 C   0  0  0  0  0  0  0  0  0  0  0  0
   -0.0000   -2.5981    0.0000 C   0  0  0  0  0  0  0  0  0  0  0  0
    0.7500   -1.2990    0.0000 C   0  0  0  0  0  0  0  0  0  0  0  0
    0.0000    0.0000    0.0000 P   0  0  0  0  0  0  0  0  0  0  0  0
    0.7500    1.2990    0.0000 C   0  0  0  0  0  0  0  0  0  0  0  0
    2.2500    1.2990    0.0000 C   0  0  0  0  0  0  0  0  0  0  0  0
    3.0000    2.5981    0.0000 C   0  0  0  0  0  0  0  0  0  0  0  0
    2.2500    3.8971    0.0000 C   0  0  0  0  0  0  0  0  0  0  0  0
    0.7500    3.8971    0.0000 C   0  0  0  0  0  0  0  0  0  0  0  0
    0.0000    5.1962    0.0000 O   0  0  0  0  0  0  0  0  0  0  0  0
    0.7500    6.4952    0.0000 C   0  0  0  0  0  0  0  0  0  0  0  0
    0.0000    2.5981    0.0000 C   0  0  0  0  0  0  0  0  0  0  0  0
   -1.5000    0.0000    0.0000 C   0  0  0  0  0  0  0  0  0  0  0  0
   -2.2500    1.2990    0.0000 C   0  0  0  0  0  0  0  0  0  0  0  0
   -3.7500    1.2990    0.0000 C   0  0  0  0  0  0  0  0  0  0  0  0
   -4.5000    0.0000    0.0000 C   0  0  0  0  0  0  0  0  0  0  0  0
   -3.7500   -1.2990    0.0000 C   0  0  0  0  0  0  0  0  0  0  0  0
   -4.5000   -2.5981    0.0000 O   0  0  0  0  0  0  0  0  0  0  0  0
   -6.0000   -2.5981    0.0000 C   0  0  0  0  0  0  0  0  0  0  0  0
   -2.2500   -1.2990    0.0000 C   0  0  0  0  0  0  0  0  0  0  0  0
    2.2500   -1.2990    0.0000 C   0  0  0  0  0  0  0  0  0  0  0  0
  1  2  1  0
  2  3  1  0
  3  4  2  0
  4  5  1  0
  5  6  2  0
  6  7  1  0
  7  8  1  0
  8  9  1  0
  9 10  2  0
 10 11  1  0
 11 12  2  0
 12 13  1  0
 13 14  1  0
 14 15  1  0
 13 16  2  0
  8 17  1  0
 17 18  2  0
 18 19  1  0
 19 20  2  0
 20 21  1  0
 21 22  1  0
 22 23  1  0
 21 24  2  0
  7 25  2  0
 25  3  1  0
 16  9  1  0
 24 17  1  0
M  END
>  <linear_selectivity>  (394) 
42

>  <denticity>  (394) 
1

>  <ligand_class>  (394) 
phosphine

$$$$
P(2-MeO-Ph)3_70C_benzene
     RDKit          2D

 25 27  0  0  0  0  0  0  0  0999 V2000
    5.2500   -3.8971    0.0000 C   0  0  0  0  0  0  0  0  0  0  0  0
    4.5000   -2.5981    0.0000 O   0  0  0  0  0  0  0  0  0  0  0  0
    3.0000   -2.5981    0.0000 C   0  0  0  0  0  0  0  0  0  0  0  0
    2.2500   -3.8971    0.0000 C   0  0  0  0  0  0  0  0  0  0  0  0
    0.7500   -3.8971    0.0000 C   0  0  0  0  0  0  0  0  0  0  0  0
   -0.0000   -2.5981    0.0000 C   0  0  0  0  0  0  0  0  0  0  0  0
    0.7500   -1.2990    0.0000 C   0  0  0  0  0  0  0  0  0  0  0  0
    0.0000    0.0000    0.0000 P   0  0  0  0  0  0  0  0  0  0  0  0
    0.7500    1.2990    0.0000 C   0  0  0  0  0  0  0  0  0  0  0  0
    2.2500    1.2990    0.0000 C   0  0  0  0  0  0  0  0  0  0  0  0
    3.0000    2.5981    0.0000 C   0  0  0  0  0  0  0  0  0  0  0  0
    2.2500    3.8971    0.0000 C   0  0  0  0  0  0  0  0  0  0  0  0
    0.7500    3.8971    0.0000 C   0  0  0  0  0  0  0  0  0  0  0  0
    0.0000    5.1962    0.0000 O   0  0  0  0  0  0  0  0  0  0  0  0
    0.7500    6.4952    0.0000 C   0  0  0  0  0  0  0  0  0  0  0  0
    0.0000    2.5981    0.0000 C   0  0  0  0  0  0  0  0  0  0  0  0
   -1.5000    0.0000    0.0000 C   0  0  0  0  0  0  0  0  0  0  0  0
   -2.2500    1.2990    0.0000 C   0  0  0  0  0  0  0  0  0  0  0  0
   -3.7500    1.2990    0.0000 C   0  0  0  0  0  0  0  0  0  0  0  0
   -4.5000    0.0000    0.0000 C   0  0  0  0  0  0  0  0  0  0  0  0
   -3.7500   -1.2990    0.0000 C   0  0  0  0  0  0  0  0  0  0  0  0
   -4.5000   -2.5981    0.0000 O   0  0  0  0  0  0  0  0  0  0  0  0
   -6.0000   -2.5981    0.0000 C   0  0  0  0  0  0  0  0  0  0  0  0
   -2.2500   -1.2990    0.0000 C   0  0  0  0  0  0  0  0  0  0  0  0
    2.2500   -1.2990    0.0000 C   0  0  0  0  0  0  0  0  0  0  0  0
  1  2  1  0
  2  3  1  0
  3  4  2  0
  4  5  1  0
  5  6  2  0
  6  7  1  0
  7  8  1  0
  8  9  1  0
  9 10  2  0
 10 11  1  0
 11 12  2  0
 12 13  1  0
 13 14  1  0
 14 15  1  0
 13 16  2  0
  8 17  1  0
 17 18  2  0
 18 19  1  0
 19 20  2  0
 20 21  1  0
 21 22  1  0
 22 23  1  0
 21 24  2  0
  7 25  2  0
 25  3  1  0
 16  9  1  0
 24 17  1  0
M  END
>  <linear_selectivity>  (395) 
35

>  <denticity>  (395) 
1

>  <ligand_class>  (395) 
phosphine

$$$$
P(2-MeO-Ph)3_80C_toluene
     RDKit          2D

 25 27  0  0  0  0  0  0  0  0999 V2000
    5.2500   -3.8971    0.0000 C   0  0  0  0  0  0  0  0  0  0  0  0
    4.5000   -2.5981    0.0000 O   0  0  0  0  0  0  0  0  0  0  0  0
    3.0000   -2.5981    0.0000 C   0  0  0  0  0  0  0  0  0  0  0  0
    2.2500   -3.8971    0.0000 C   0  0  0  0  0  0  0  0  0  0  0  0
    0.7500   -3.8971    0.0000 C   0  0  0  0  0  0  0  0  0  0  0  0
   -0.0000   -2.5981    0.0000 C   0  0  0  0  0  0  0  0  0  0  0  0
    0.7500   -1.2990    0.0000 C   0  0  0  0  0  0  0  0  0  0  0  0
    0.0000    0.0000    0.0000 P   0  0  0  0  0  0  0  0  0  0  0  0
    0.7500    1.2990    0.0000 C   0  0  0  0  0  0  0  0  0  0  0  0
    2.2500    1.2990    0.0000 C   0  0  0  0  0  0  0  0  0  0  0  0
    3.0000    2.5981    0.0000 C   0  0  0  0  0  0  0  0  0  0  0  0
    2.2500    3.8971    0.0000 C   0  0  0  0  0  0  0  0  0  0  0  0
    0.7500    3.8971    0.0000 C   0  0  0  0  0  0  0  0  0  0  0  0
    0.0000    5.1962    0.0000 O   0  0  0  0  0  0  0  0  0  0  0  0
    0.7500    6.4952    0.0000 C   0  0  0  0  0  0  0  0  0  0  0  0
    0.0000    2.5981    0.0000 C   0  0  0  0  0  0  0  0  0  0  0  0
   -1.5000    0.0000    0.0000 C   0  0  0  0  0  0  0  0  0  0  0  0
   -2.2500    1.2990    0.0000 C   0  0  0  0  0  0  0  0  0  0  0  0
   -3.7500    1.2990    0.0000 C   0  0  0  0  0  0  0  0  0  0  0  0
   -4.5000    0.0000    0.0000 C   0  0  0  0  0  0  0  0  0  0  0  0
   -3.7500   -1.2990    0.0000 C   0  0  0  0  0  0  0  0  0  0  0  0
   -4.5000   -2.5981    0.0000 O   0  0  0  0  0  0  0  0  0  0  0  0
   -6.0000   -2.5981    0.0000 C   0  0  0  0  0  0  0  0  0  0  0  0
   -2.2500   -1.2990    0.0000 C   0  0  0  0  0  0  0  0  0  0  0  0
    2.2500   -1.2990    0.0000 C   0  0  0  0  0  0  0  0  0  0  0  0
  1  2  1  0
  2  3  1  0
  3  4  2  0
  4  5  1  0
  5  6  2  0
  6  7  1  0
  7  8  1  0
  8  9  1  0
  9 10  2  0
 10 11  1  0
 11 12  2  0
 12 13  1  0
 13 14  1  0
 14 15  1  0
 13 16  2  0
  8 17  1  0
 17 18  2  0
 18 19  1  0
 19 20  2  0
 20 21  1  0
 21 22  1  0
 22 23  1  0
 21 24  2  0
  7 25  2  0
 25  3  1  0
 16  9  1  0
 24 17  1  0
M  END
>  <linear_selectivity>  (396) 
37

>  <denticity>  (396) 
1

>  <ligand_class>  (396) 
phosphine

$$$$
P(2-MeO-Ph)3_80C_THF
     RDKit          2D

 25 27  0  0  0  0  0  0  0  0999 V2000
    5.2500   -3.8971    0.0000 C   0  0  0  0  0  0  0  0  0  0  0  0
    4.5000   -2.5981    0.0000 O   0  0  0  0  0  0  0  0  0  0  0  0
    3.0000   -2.5981    0.0000 C   0  0  0  0  0  0  0  0  0  0  0  0
    2.2500   -3.8971    0.0000 C   0  0  0  0  0  0  0  0  0  0  0  0
    0.7500   -3.8971    0.0000 C   0  0  0  0  0  0  0  0  0  0  0  0
   -0.0000   -2.5981    0.0000 C   0  0  0  0  0  0  0  0  0  0  0  0
    0.7500   -1.2990    0.0000 C   0  0  0  0  0  0  0  0  0  0  0  0
    0.0000    0.0000    0.0000 P   0  0  0  0  0  0  0  0  0  0  0  0
    0.7500    1.2990    0.0000 C   0  0  0  0  0  0  0  0  0  0  0  0
    2.2500    1.2990    0.0000 C   0  0  0  0  0  0  0  0  0  0  0  0
    3.0000    2.5981    0.0000 C   0  0  0  0  0  0  0  0  0  0  0  0
    2.2500    3.8971    0.0000 C   0  0  0  0  0  0  0  0  0  0  0  0
    0.7500    3.8971    0.0000 C   0  0  0  0  0  0  0  0  0  0  0  0
    0.0000    5.1962    0.0000 O   0  0  0  0  0  0  0  0  0  0  0  0
    0.7500    6.4952    0.0000 C   0  0  0  0  0  0  0  0  0  0  0  0
    0.0000    2.5981    0.0000 C   0  0  0  0  0  0  0  0  0  0  0  0
   -1.5000    0.0000    0.0000 C   0  0  0  0  0  0  0  0  0  0  0  0
   -2.2500    1.2990    0.0000 C   0  0  0  0  0  0  0  0  0  0  0  0
   -3.7500    1.2990    0.0000 C   0  0  0  0  0  0  0  0  0  0  0  0
   -4.5000    0.0000    0.0000 C   0  0  0  0  0  0  0  0  0  0  0  0
   -3.7500   -1.2990    0.0000 C   0  0  0  0  0  0  0  0  0  0  0  0
   -4.5000   -2.5981    0.0000 O   0  0  0  0  0  0  0  0  0  0  0  0
   -6.0000   -2.5981    0.0000 C   0  0  0  0  0  0  0  0  0  0  0  0
   -2.2500   -1.2990    0.0000 C   0  0  0  0  0  0  0  0  0  0  0  0
    2.2500   -1.2990    0.0000 C   0  0  0  0  0  0  0  0  0  0  0  0
  1  2  1  0
  2  3  1  0
  3  4  2  0
  4  5  1  0
  5  6  2  0
  6  7  1  0
  7  8  1  0
  8  9  1  0
  9 10  2  0
 10 11  1  0
 11 12  2  0
 12 13  1  0
 13 14  1  0
 14 15  1  0
 13 16  2  0
  8 17  1  0
 17 18  2  0
 18 19  1  0
 19 20  2  0
 20 21  1  0
 21 22  1  0
 22 23  1  0
 21 24  2  0
  7 25  2  0
 25  3  1  0
 16  9  1  0
 24 17  1  0
M  END
>  <linear_selectivity>  (397) 
36

>  <denticity>  (397) 
1

>  <ligand_class>  (397) 
phosphine

$$$$
P(2-MeO-Ph)3_80C_dioxane
     RDKit          2D

 25 27  0  0  0  0  0  0  0  0999 V2000
    5.2500   -3.8971    0.0000 C   0  0  0  0  0  0  0  0  0  0  0  0
    4.5000   -2.5981    0.0000 O   0  0  0  0  0  0  0  0  0  0  0  0
    3.0000   -2.5981    0.0000 C   0  0  0  0  0  0  0  0  0  0  0  0
    2.2500   -3.8971    0.0000 C   0  0  0  0  0  0  0  0  0  0  0  0
    0.7500   -3.8971    0.0000 C   0  0  0  0  0  0  0  0  0  0  0  0
   -0.0000   -2.5981    0.0000 C   0  0  0  0  0  0  0  0  0  0  0  0
    0.7500   -1.2990    0.0000 C   0  0  0  0  0  0  0  0  0  0  0  0
    0.0000    0.0000    0.0000 P   0  0  0  0  0  0  0  0  0  0  0  0
    0.7500    1.2990    0.0000 C   0  0  0  0  0  0  0  0  0  0  0  0
    2.2500    1.2990    0.0000 C   0  0  0  0  0  0  0  0  0  0  0  0
    3.0000    2.5981    0.0000 C   0  0  0  0  0  0  0  0  0  0  0  0
    2.2500    3.8971    0.0000 C   0  0  0  0  0  0  0  0  0  0  0  0
    0.7500    3.8971    0.0000 C   0  0  0  0  0  0  0  0  0  0  0  0
    0.0000    5.1962    0.0000 O   0  0  0  0  0  0  0  0  0  0  0  0
    0.7500    6.4952    0.0000 C   0  0  0  0  0  0  0  0  0  0  0  0
    0.0000    2.5981    0.0000 C   0  0  0  0  0  0  0  0  0  0  0  0
   -1.5000    0.0000    0.0000 C   0  0  0  0  0  0  0  0  0  0  0  0
   -2.2500    1.2990    0.0000 C   0  0  0  0  0  0  0  0  0  0  0  0
   -3.7500    1.2990    0.0000 C   0  0  0  0  0  0  0  0  0  0  0  0
   -4.5000    0.0000    0.0000 C   0  0  0  0  0  0  0  0  0  0  0  0
   -3.7500   -1.2990    0.0000 C   0  0  0  0  0  0  0  0  0  0  0  0
   -4.5000   -2.5981    0.0000 O   0  0  0  0  0  0  0  0  0  0  0  0
   -6.0000   -2.5981    0.0000 C   0  0  0  0  0  0  0  0  0  0  0  0
   -2.2500   -1.2990    0.0000 C   0  0  0  0  0  0  0  0  0  0  0  0
    2.2500   -1.2990    0.0000 C   0  0  0  0  0  0  0  0  0  0  0  0
  1  2  1  0
  2  3  1  0
  3  4  2  0
  4  5  1  0
  5  6  2  0
  6  7  1  0
  7  8  1  0
  8  9  1  0
  9 10  2  0
 10 11  1  0
 11 12  2  0
 12 13  1  0
 13 14  1  0
 14 15  1  0
 13 16  2  0
  8 17  1  0
 17 18  2  0
 18 19  1  0
 19 20  2  0
 20 21  1  0
 21 22  1  0
 22 23  1  0
 21 24  2  0
  7 25  2  0
 25  3  1  0
 16  9  1  0
 24 17  1  0
M  END
>  <linear_selectivity>  (398) 
35

>  <denticity>  (398) 
1

>  <ligand_class>  (398) 
phosphine

$$$$
P(2-MeO-Ph)3_80C_hexane
     RDKit          2D

 25 27  0  0  0  0  0  0  0  0999 V2000
    5.2500   -3.8971    0.0000 C   0  0  0  0  0  0  0  0  0  0  0  0
    4.5000   -2.5981    0.0000 O   0  0  0  0  0  0  0  0  0  0  0  0
    3.0000   -2.5981    0.0000 C   0  0  0  0  0  0  0  0  0  0  0  0
    2.2500   -3.8971    0.0000 C   0  0  0  0  0  0  0  0  0  0  0  0
    0.7500   -3.8971    0.0000 C   0  0  0  0  0  0  0  0  0  0  0  0
   -0.0000   -2.5981    0.0000 C   0  0  0  0  0  0  0  0  0  0  0  0
    0.7500   -1.2990    0.0000 C   0  0  0  0  0  0  0  0  0  0  0  0
    0.0000    0.0000    0.0000 P   0  0  0  0  0  0  0  0  0  0  0  0
    0.7500    1.2990    0.0000 C   0  0  0  0  0  0  0  0  0  0  0  0
    2.2500    1.2990    0.0000 C   0  0  0  0  0  0  0  0  0  0  0  0
    3.0000    2.5981    0.0000 C   0  0  0  0  0  0  0  0  0  0  0  0
    2.2500    3.8971    0.0000 C   0  0  0  0  0  0  0  0  0  0  0  0
    0.7500    3.8971    0.0000 C   0  0  0  0  0  0  0  0  0  0  0  0
    0.0000    5.1962    0.0000 O   0  0  0  0  0  0  0  0  0  0  0  0
    0.7500    6.4952    0.0000 C   0  0  0  0  0  0  0  0  0  0  0  0
    0.0000    2.5981    0.0000 C   0  0  0  0  0  0  0  0  0  0  0  0
   -1.5000    0.0000    0.0000 C   0  0  0  0  0  0  0  0  0  0  0  0
   -2.2500    1.2990    0.0000 C   0  0  0  0  0  0  0  0  0  0  0  0
   -3.7500    1.2990    0.0000 C   0  0  0  0  0  0  0  0  0  0  0  0
   -4.5000    0.0000    0.0000 C   0  0  0  0  0  0  0  0  0  0  0  0
   -3.7500   -1.2990    0.0000 C   0  0  0  0  0  0  0  0  0  0  0  0
   -4.5000   -2.5981    0.0000 O   0  0  0  0  0  0  0  0  0  0  0  0
   -6.0000   -2.5981    0.0000 C   0  0  0  0  0  0  0  0  0  0  0  0
   -2.2500   -1.2990    0.0000 C   0  0  0  0  0  0  0  0  0  0  0  0
    2.2500   -1.2990    0.0000 C   0  0  0  0  0  0  0  0  0  0  0  0
  1  2  1  0
  2  3  1  0
  3  4  2  0
  4  5  1  0
  5  6  2  0
  6  7  1  0
  7  8  1  0
  8  9  1  0
  9 10  2  0
 10 11  1  0
 11 12  2  0
 12 13  1  0
 13 14  1  0
 14 15  1  0
 13 16  2  0
  8 17  1  0
 17 18  2  0
 18 19  1  0
 19 20  2  0
 20 21  1  0
 21 22  1  0
 22 23  1  0
 21 24  2  0
  7 25  2  0
 25  3  1  0
 16  9  1  0
 24 17  1  0
M  END
>  <linear_selectivity>  (399) 
40

>  <denticity>  (399) 
1

>  <ligand_class>  (399) 
phosphine

$$$$
P(2-MeO-Ph)3_80C_benzene
     RDKit          2D

 25 27  0  0  0  0  0  0  0  0999 V2000
    5.2500   -3.8971    0.0000 C   0  0  0  0  0  0  0  0  0  0  0  0
    4.5000   -2.5981    0.0000 O   0  0  0  0  0  0  0  0  0  0  0  0
    3.0000   -2.5981    0.0000 C   0  0  0  0  0  0  0  0  0  0  0  0
    2.2500   -3.8971    0.0000 C   0  0  0  0  0  0  0  0  0  0  0  0
    0.7500   -3.8971    0.0000 C   0  0  0  0  0  0  0  0  0  0  0  0
   -0.0000   -2.5981    0.0000 C   0  0  0  0  0  0  0  0  0  0  0  0
    0.7500   -1.2990    0.0000 C   0  0  0  0  0  0  0  0  0  0  0  0
    0.0000    0.0000    0.0000 P   0  0  0  0  0  0  0  0  0  0  0  0
    0.7500    1.2990    0.0000 C   0  0  0  0  0  0  0  0  0  0  0  0
    2.2500    1.2990    0.0000 C   0  0  0  0  0  0  0  0  0  0  0  0
    3.0000    2.5981    0.0000 C   0  0  0  0  0  0  0  0  0  0  0  0
    2.2500    3.8971    0.0000 C   0  0  0  0  0  0  0  0  0  0  0  0
    0.7500    3.8971    0.0000 C   0  0  0  0  0  0  0  0  0  0  0  0
    0.0000    5.1962    0.0000 O   0  0  0  0  0  0  0  0  0  0  0  0
    0.7500    6.4952    0.0000 C   0  0  0  0  0  0  0  0  0  0  0  0
    0.0000    2.5981    0.0000 C   0  0  0  0  0  0  0  0  0  0  0  0
   -1.5000    0.0000    0.0000 C   0  0  0  0  0  0  0  0  0  0  0  0
   -2.2500    1.2990    0.0000 C   0  0  0  0  0  0  0  0  0  0  0  0
   -3.7500    1.2990    0.0000 C   0  0  0  0  0  0  0  0  0  0  0  0
   -4.5000    0.0000    0.0000 C   0  0  0  0  0  0  0  0  0  0  0  0
   -3.7500   -1.2990    0.0000 C   0  0  0  0  0  0  0  0  0  0  0  0
   -4.5000   -2.5981    0.0000 O   0  0  0  0  0  0  0  0  0  0  0  0
   -6.0000   -2.5981    0.0000 C   0  0  0  0  0  0  0  0  0  0  0  0
   -2.2500   -1.2990    0.0000 C   0  0  0  0  0  0  0  0  0  0  0  0
    2.2500   -1.2990    0.0000 C   0  0  0  0  0  0  0  0  0  0  0  0
  1  2  1  0
  2  3  1  0
  3  4  2  0
  4  5  1  0
  5  6  2  0
  6  7  1  0
  7  8  1  0
  8  9  1  0
  9 10  2  0
 10 11  1  0
 11 12  2  0
 12 13  1  0
 13 14  1  0
 14 15  1  0
 13 16  2  0
  8 17  1  0
 17 18  2  0
 18 19  1  0
 19 20  2  0
 20 21  1  0
 21 22  1  0
 22 23  1  0
 21 24  2  0
  7 25  2  0
 25  3  1  0
 16  9  1  0
 24 17  1  0
M  END
>  <linear_selectivity>  (400) 
40

>  <denticity>  (400) 
1

>  <ligand_class>  (400) 
phosphine

$$$$
P(2-MeO-Ph)3_90C_THF
     RDKit          2D

 25 27  0  0  0  0  0  0  0  0999 V2000
    5.2500   -3.8971    0.0000 C   0  0  0  0  0  0  0  0  0  0  0  0
    4.5000   -2.5981    0.0000 O   0  0  0  0  0  0  0  0  0  0  0  0
    3.0000   -2.5981    0.0000 C   0  0  0  0  0  0  0  0  0  0  0  0
    2.2500   -3.8971    0.0000 C   0  0  0  0  0  0  0  0  0  0  0  0
    0.7500   -3.8971    0.0000 C   0  0  0  0  0  0  0  0  0  0  0  0
   -0.0000   -2.5981    0.0000 C   0  0  0  0  0  0  0  0  0  0  0  0
    0.7500   -1.2990    0.0000 C   0  0  0  0  0  0  0  0  0  0  0  0
    0.0000    0.0000    0.0000 P   0  0  0  0  0  0  0  0  0  0  0  0
    0.7500    1.2990    0.0000 C   0  0  0  0  0  0  0  0  0  0  0  0
    2.2500    1.2990    0.0000 C   0  0  0  0  0  0  0  0  0  0  0  0
    3.0000    2.5981    0.0000 C   0  0  0  0  0  0  0  0  0  0  0  0
    2.2500    3.8971    0.0000 C   0  0  0  0  0  0  0  0  0  0  0  0
    0.7500    3.8971    0.0000 C   0  0  0  0  0  0  0  0  0  0  0  0
    0.0000    5.1962    0.0000 O   0  0  0  0  0  0  0  0  0  0  0  0
    0.7500    6.4952    0.0000 C   0  0  0  0  0  0  0  0  0  0  0  0
    0.0000    2.5981    0.0000 C   0  0  0  0  0  0  0  0  0  0  0  0
   -1.5000    0.0000    0.0000 C   0  0  0  0  0  0  0  0  0  0  0  0
   -2.2500    1.2990    0.0000 C   0  0  0  0  0  0  0  0  0  0  0  0
   -3.7500    1.2990    0.0000 C   0  0  0  0  0  0  0  0  0  0  0  0
   -4.5000    0.0000    0.0000 C   0  0  0  0  0  0  0  0  0  0  0  0
   -3.7500   -1.2990    0.0000 C   0  0  0  0  0  0  0  0  0  0  0  0
   -4.5000   -2.5981    0.0000 O   0  0  0  0  0  0  0  0  0  0  0  0
   -6.0000   -2.5981    0.0000 C   0  0  0  0  0  0  0  0  0  0  0  0
   -2.2500   -1.2990    0.0000 C   0  0  0  0  0  0  0  0  0  0  0  0
    2.2500   -1.2990    0.0000 C   0  0  0  0  0  0  0  0  0  0  0  0
  1  2  1  0
  2  3  1  0
  3  4  2  0
  4  5  1  0
  5  6  2  0
  6  7  1  0
  7  8  1  0
  8  9  1  0
  9 10  2  0
 10 11  1  0
 11 12  2  0
 12 13  1  0
 13 14  1  0
 14 15  1  0
 13 16  2  0
  8 17  1  0
 17 18  2  0
 18 19  1  0
 19 20  2  0
 20 21  1  0
 21 22  1  0
 22 23  1  0
 21 24  2  0
  7 25  2  0
 25  3  1  0
 16  9  1  0
 24 17  1  0
M  END
>  <linear_selectivity>  (401) 
34

>  <denticity>  (401) 
1

>  <ligand_class>  (401) 
phosphine

$$$$
P(2-MeO-Ph)3_90C_hexane
     RDKit          2D

 25 27  0  0  0  0  0  0  0  0999 V2000
    5.2500   -3.8971    0.0000 C   0  0  0  0  0  0  0  0  0  0  0  0
    4.5000   -2.5981    0.0000 O   0  0  0  0  0  0  0  0  0  0  0  0
    3.0000   -2.5981    0.0000 C   0  0  0  0  0  0  0  0  0  0  0  0
    2.2500   -3.8971    0.0000 C   0  0  0  0  0  0  0  0  0  0  0  0
    0.7500   -3.8971    0.0000 C   0  0  0  0  0  0  0  0  0  0  0  0
   -0.0000   -2.5981    0.0000 C   0  0  0  0  0  0  0  0  0  0  0  0
    0.7500   -1.2990    0.0000 C   0  0  0  0  0  0  0  0  0  0  0  0
    0.0000    0.0000    0.0000 P   0  0  0  0  0  0  0  0  0  0  0  0
    0.7500    1.2990    0.0000 C   0  0  0  0  0  0  0  0  0  0  0  0
    2.2500    1.2990    0.0000 C   0  0  0  0  0  0  0  0  0  0  0  0
    3.0000    2.5981    0.0000 C   0  0  0  0  0  0  0  0  0  0  0  0
    2.2500    3.8971    0.0000 C   0  0  0  0  0  0  0  0  0  0  0  0
    0.7500    3.8971    0.0000 C   0  0  0  0  0  0  0  0  0  0  0  0
    0.0000    5.1962    0.0000 O   0  0  0  0  0  0  0  0  0  0  0  0
    0.7500    6.4952    0.0000 C   0  0  0  0  0  0  0  0  0  0  0  0
    0.0000    2.5981    0.0000 C   0  0  0  0  0  0  0  0  0  0  0  0
   -1.5000    0.0000    0.0000 C   0  0  0  0  0  0  0  0  0  0  0  0
   -2.2500    1.2990    0.0000 C   0  0  0  0  0  0  0  0  0  0  0  0
   -3.7500    1.2990    0.0000 C   0  0  0  0  0  0  0  0  0  0  0  0
   -4.5000    0.0000    0.0000 C   0  0  0  0  0  0  0  0  0  0  0  0
   -3.7500   -1.2990    0.0000 C   0  0  0  0  0  0  0  0  0  0  0  0
   -4.5000   -2.5981    0.0000 O   0  0  0  0  0  0  0  0  0  0  0  0
   -6.0000   -2.5981    0.0000 C   0  0  0  0  0  0  0  0  0  0  0  0
   -2.2500   -1.2990    0.0000 C   0  0  0  0  0  0  0  0  0  0  0  0
    2.2500   -1.2990    0.0000 C   0  0  0  0  0  0  0  0  0  0  0  0
  1  2  1  0
  2  3  1  0
  3  4  2  0
  4  5  1  0
  5  6  2  0
  6  7  1  0
  7  8  1  0
  8  9  1  0
  9 10  2  0
 10 11  1  0
 11 12  2  0
 12 13  1  0
 13 14  1  0
 14 15  1  0
 13 16  2  0
  8 17  1  0
 17 18  2  0
 18 19  1  0
 19 20  2  0
 20 21  1  0
 21 22  1  0
 22 23  1  0
 21 24  2  0
  7 25  2  0
 25  3  1  0
 16  9  1  0
 24 17  1  0
M  END
>  <linear_selectivity>  (402) 
38

>  <denticity>  (402) 
1

>  <ligand_class>  (402) 
phosphine

$$$$
P(2-MeO-Ph)3_90C_benzene
     RDKit          2D

 25 27  0  0  0  0  0  0  0  0999 V2000
    5.2500   -3.8971    0.0000 C   0  0  0  0  0  0  0  0  0  0  0  0
    4.5000   -2.5981    0.0000 O   0  0  0  0  0  0  0  0  0  0  0  0
    3.0000   -2.5981    0.0000 C   0  0  0  0  0  0  0  0  0  0  0  0
    2.2500   -3.8971    0.0000 C   0  0  0  0  0  0  0  0  0  0  0  0
    0.7500   -3.8971    0.0000 C   0  0  0  0  0  0  0  0  0  0  0  0
   -0.0000   -2.5981    0.0000 C   0  0  0  0  0  0  0  0  0  0  0  0
    0.7500   -1.2990    0.0000 C   0  0  0  0  0  0  0  0  0  0  0  0
    0.0000    0.0000    0.0000 P   0  0  0  0  0  0  0  0  0  0  0  0
    0.7500    1.2990    0.0000 C   0  0  0  0  0  0  0  0  0  0  0  0
    2.2500    1.2990    0.0000 C   0  0  0  0  0  0  0  0  0  0  0  0
    3.0000    2.5981    0.0000 C   0  0  0  0  0  0  0  0  0  0  0  0
    2.2500    3.8971    0.0000 C   0  0  0  0  0  0  0  0  0  0  0  0
    0.7500    3.8971    0.0000 C   0  0  0  0  0  0  0  0  0  0  0  0
    0.0000    5.1962    0.0000 O   0  0  0  0  0  0  0  0  0  0  0  0
    0.7500    6.4952    0.0000 C   0  0  0  0  0  0  0  0  0  0  0  0
    0.0000    2.5981    0.0000 C   0  0  0  0  0  0  0  0  0  0  0  0
   -1.5000    0.0000    0.0000 C   0  0  0  0  0  0  0  0  0  0  0  0
   -2.2500    1.2990    0.0000 C   0  0  0  0  0  0  0  0  0  0  0  0
   -3.7500    1.2990    0.0000 C   0  0  0  0  0  0  0  0  0  0  0  0
   -4.5000    0.0000    0.0000 C   0  0  0  0  0  0  0  0  0  0  0  0
   -3.7500   -1.2990    0.0000 C   0  0  0  0  0  0  0  0  0  0  0  0
   -4.5000   -2.5981    0.0000 O   0  0  0  0  0  0  0  0  0  0  0  0
   -6.0000   -2.5981    0.0000 C   0  0  0  0  0  0  0  0  0  0  0  0
   -2.2500   -1.2990    0.0000 C   0  0  0  0  0  0  0  0  0  0  0  0
    2.2500   -1.2990    0.0000 C   0  0  0  0  0  0  0  0  0  0  0  0
  1  2  1  0
  2  3  1  0
  3  4  2  0
  4  5  1  0
  5  6  2  0
  6  7  1  0
  7  8  1  0
  8  9  1  0
  9 10  2  0
 10 11  1  0
 11 12  2  0
 12 13  1  0
 13 14  1  0
 14 15  1  0
 13 16  2  0
  8 17  1  0
 17 18  2  0
 18 19  1  0
 19 20  2  0
 20 21  1  0
 21 22  1  0
 22 23  1  0
 21 24  2  0
  7 25  2  0
 25  3  1  0
 16  9  1  0
 24 17  1  0
M  END
>  <linear_selectivity>  (403) 
35

>  <denticity>  (403) 
1

>  <ligand_class>  (403) 
phosphine

$$$$
P(2-MeO-Ph)3_100C_toluene
     RDKit          2D

 25 27  0  0  0  0  0  0  0  0999 V2000
    5.2500   -3.8971    0.0000 C   0  0  0  0  0  0  0  0  0  0  0  0
    4.5000   -2.5981    0.0000 O   0  0  0  0  0  0  0  0  0  0  0  0
    3.0000   -2.5981    0.0000 C   0  0  0  0  0  0  0  0  0  0  0  0
    2.2500   -3.8971    0.0000 C   0  0  0  0  0  0  0  0  0  0  0  0
    0.7500   -3.8971    0.0000 C   0  0  0  0  0  0  0  0  0  0  0  0
   -0.0000   -2.5981    0.0000 C   0  0  0  0  0  0  0  0  0  0  0  0
    0.7500   -1.2990    0.0000 C   0  0  0  0  0  0  0  0  0  0  0  0
    0.0000    0.0000    0.0000 P   0  0  0  0  0  0  0  0  0  0  0  0
    0.7500    1.2990    0.0000 C   0  0  0  0  0  0  0  0  0  0  0  0
    2.2500    1.2990    0.0000 C   0  0  0  0  0  0  0  0  0  0  0  0
    3.0000    2.5981    0.0000 C   0  0  0  0  0  0  0  0  0  0  0  0
    2.2500    3.8971    0.0000 C   0  0  0  0  0  0  0  0  0  0  0  0
    0.7500    3.8971    0.0000 C   0  0  0  0  0  0  0  0  0  0  0  0
    0.0000    5.1962    0.0000 O   0  0  0  0  0  0  0  0  0  0  0  0
    0.7500    6.4952    0.0000 C   0  0  0  0  0  0  0  0  0  0  0  0
    0.0000    2.5981    0.0000 C   0  0  0  0  0  0  0  0  0  0  0  0
   -1.5000    0.0000    0.0000 C   0  0  0  0  0  0  0  0  0  0  0  0
   -2.2500    1.2990    0.0000 C   0  0  0  0  0  0  0  0  0  0  0  0
   -3.7500    1.2990    0.0000 C   0  0  0  0  0  0  0  0  0  0  0  0
   -4.5000    0.0000    0.0000 C   0  0  0  0  0  0  0  0  0  0  0  0
   -3.7500   -1.2990    0.0000 C   0  0  0  0  0  0  0  0  0  0  0  0
   -4.5000   -2.5981    0.0000 O   0  0  0  0  0  0  0  0  0  0  0  0
   -6.0000   -2.5981    0.0000 C   0  0  0  0  0  0  0  0  0  0  0  0
   -2.2500   -1.2990    0.0000 C   0  0  0  0  0  0  0  0  0  0  0  0
    2.2500   -1.2990    0.0000 C   0  0  0  0  0  0  0  0  0  0  0  0
  1  2  1  0
  2  3  1  0
  3  4  2  0
  4  5  1  0
  5  6  2  0
  6  7  1  0
  7  8  1  0
  8  9  1  0
  9 10  2  0
 10 11  1  0
 11 12  2  0
 12 13  1  0
 13 14  1  0
 14 15  1  0
 13 16  2  0
  8 17  1  0
 17 18  2  0
 18 19  1  0
 19 20  2  0
 20 21  1  0
 21 22  1  0
 22 23  1  0
 21 24  2  0
  7 25  2  0
 25  3  1  0
 16  9  1  0
 24 17  1  0
M  END
>  <linear_selectivity>  (404) 
38

>  <denticity>  (404) 
1

>  <ligand_class>  (404) 
phosphine

$$$$
P(2-MeO-Ph)3_100C_THF
     RDKit          2D

 25 27  0  0  0  0  0  0  0  0999 V2000
    5.2500   -3.8971    0.0000 C   0  0  0  0  0  0  0  0  0  0  0  0
    4.5000   -2.5981    0.0000 O   0  0  0  0  0  0  0  0  0  0  0  0
    3.0000   -2.5981    0.0000 C   0  0  0  0  0  0  0  0  0  0  0  0
    2.2500   -3.8971    0.0000 C   0  0  0  0  0  0  0  0  0  0  0  0
    0.7500   -3.8971    0.0000 C   0  0  0  0  0  0  0  0  0  0  0  0
   -0.0000   -2.5981    0.0000 C   0  0  0  0  0  0  0  0  0  0  0  0
    0.7500   -1.2990    0.0000 C   0  0  0  0  0  0  0  0  0  0  0  0
    0.0000    0.0000    0.0000 P   0  0  0  0  0  0  0  0  0  0  0  0
    0.7500    1.2990    0.0000 C   0  0  0  0  0  0  0  0  0  0  0  0
    2.2500    1.2990    0.0000 C   0  0  0  0  0  0  0  0  0  0  0  0
    3.0000    2.5981    0.0000 C   0  0  0  0  0  0  0  0  0  0  0  0
    2.2500    3.8971    0.0000 C   0  0  0  0  0  0  0  0  0  0  0  0
    0.7500    3.8971    0.0000 C   0  0  0  0  0  0  0  0  0  0  0  0
    0.0000    5.1962    0.0000 O   0  0  0  0  0  0  0  0  0  0  0  0
    0.7500    6.4952    0.0000 C   0  0  0  0  0  0  0  0  0  0  0  0
    0.0000    2.5981    0.0000 C   0  0  0  0  0  0  0  0  0  0  0  0
   -1.5000    0.0000    0.0000 C   0  0  0  0  0  0  0  0  0  0  0  0
   -2.2500    1.2990    0.0000 C   0  0  0  0  0  0  0  0  0  0  0  0
   -3.7500    1.2990    0.0000 C   0  0  0  0  0  0  0  0  0  0  0  0
   -4.5000    0.0000    0.0000 C   0  0  0  0  0  0  0  0  0  0  0  0
   -3.7500   -1.2990    0.0000 C   0  0  0  0  0  0  0  0  0  0  0  0
   -4.5000   -2.5981    0.0000 O   0  0  0  0  0  0  0  0  0  0  0  0
   -6.0000   -2.5981    0.0000 C   0  0  0  0  0  0  0  0  0  0  0  0
   -2.2500   -1.2990    0.0000 C   0  0  0  0  0  0  0  0  0  0  0  0
    2.2500   -1.2990    0.0000 C   0  0  0  0  0  0  0  0  0  0  0  0
  1  2  1  0
  2  3  1  0
  3  4  2  0
  4  5  1  0
  5  6  2  0
  6  7  1  0
  7  8  1  0
  8  9  1  0
  9 10  2  0
 10 11  1  0
 11 12  2  0
 12 13  1  0
 13 14  1  0
 14 15  1  0
 13 16  2  0
  8 17  1  0
 17 18  2  0
 18 19  1  0
 19 20  2  0
 20 21  1  0
 21 22  1  0
 22 23  1  0
 21 24  2  0
  7 25  2  0
 25  3  1  0
 16  9  1  0
 24 17  1  0
M  END
>  <linear_selectivity>  (405) 
36

>  <denticity>  (405) 
1

>  <ligand_class>  (405) 
phosphine

$$$$
P(2-MeO-Ph)3_100C_dioxane
     RDKit          2D

 25 27  0  0  0  0  0  0  0  0999 V2000
    5.2500   -3.8971    0.0000 C   0  0  0  0  0  0  0  0  0  0  0  0
    4.5000   -2.5981    0.0000 O   0  0  0  0  0  0  0  0  0  0  0  0
    3.0000   -2.5981    0.0000 C   0  0  0  0  0  0  0  0  0  0  0  0
    2.2500   -3.8971    0.0000 C   0  0  0  0  0  0  0  0  0  0  0  0
    0.7500   -3.8971    0.0000 C   0  0  0  0  0  0  0  0  0  0  0  0
   -0.0000   -2.5981    0.0000 C   0  0  0  0  0  0  0  0  0  0  0  0
    0.7500   -1.2990    0.0000 C   0  0  0  0  0  0  0  0  0  0  0  0
    0.0000    0.0000    0.0000 P   0  0  0  0  0  0  0  0  0  0  0  0
    0.7500    1.2990    0.0000 C   0  0  0  0  0  0  0  0  0  0  0  0
    2.2500    1.2990    0.0000 C   0  0  0  0  0  0  0  0  0  0  0  0
    3.0000    2.5981    0.0000 C   0  0  0  0  0  0  0  0  0  0  0  0
    2.2500    3.8971    0.0000 C   0  0  0  0  0  0  0  0  0  0  0  0
    0.7500    3.8971    0.0000 C   0  0  0  0  0  0  0  0  0  0  0  0
    0.0000    5.1962    0.0000 O   0  0  0  0  0  0  0  0  0  0  0  0
    0.7500    6.4952    0.0000 C   0  0  0  0  0  0  0  0  0  0  0  0
    0.0000    2.5981    0.0000 C   0  0  0  0  0  0  0  0  0  0  0  0
   -1.5000    0.0000    0.0000 C   0  0  0  0  0  0  0  0  0  0  0  0
   -2.2500    1.2990    0.0000 C   0  0  0  0  0  0  0  0  0  0  0  0
   -3.7500    1.2990    0.0000 C   0  0  0  0  0  0  0  0  0  0  0  0
   -4.5000    0.0000    0.0000 C   0  0  0  0  0  0  0  0  0  0  0  0
   -3.7500   -1.2990    0.0000 C   0  0  0  0  0  0  0  0  0  0  0  0
   -4.5000   -2.5981    0.0000 O   0  0  0  0  0  0  0  0  0  0  0  0
   -6.0000   -2.5981    0.0000 C   0  0  0  0  0  0  0  0  0  0  0  0
   -2.2500   -1.2990    0.0000 C   0  0  0  0  0  0  0  0  0  0  0  0
    2.2500   -1.2990    0.0000 C   0  0  0  0  0  0  0  0  0  0  0  0
  1  2  1  0
  2  3  1  0
  3  4  2  0
  4  5  1  0
  5  6  2  0
  6  7  1  0
  7  8  1  0
  8  9  1  0
  9 10  2  0
 10 11  1  0
 11 12  2  0
 12 13  1  0
 13 14  1  0
 14 15  1  0
 13 16  2  0
  8 17  1  0
 17 18  2  0
 18 19  1  0
 19 20  2  0
 20 21  1  0
 21 22  1  0
 22 23  1  0
 21 24  2  0
  7 25  2  0
 25  3  1  0
 16  9  1  0
 24 17  1  0
M  END
>  <linear_selectivity>  (406) 
34

>  <denticity>  (406) 
1

>  <ligand_class>  (406) 
phosphine

$$$$
P(2-MeO-Ph)3_100C_benzene
     RDKit          2D

 25 27  0  0  0  0  0  0  0  0999 V2000
    5.2500   -3.8971    0.0000 C   0  0  0  0  0  0  0  0  0  0  0  0
    4.5000   -2.5981    0.0000 O   0  0  0  0  0  0  0  0  0  0  0  0
    3.0000   -2.5981    0.0000 C   0  0  0  0  0  0  0  0  0  0  0  0
    2.2500   -3.8971    0.0000 C   0  0  0  0  0  0  0  0  0  0  0  0
    0.7500   -3.8971    0.0000 C   0  0  0  0  0  0  0  0  0  0  0  0
   -0.0000   -2.5981    0.0000 C   0  0  0  0  0  0  0  0  0  0  0  0
    0.7500   -1.2990    0.0000 C   0  0  0  0  0  0  0  0  0  0  0  0
    0.0000    0.0000    0.0000 P   0  0  0  0  0  0  0  0  0  0  0  0
    0.7500    1.2990    0.0000 C   0  0  0  0  0  0  0  0  0  0  0  0
    2.2500    1.2990    0.0000 C   0  0  0  0  0  0  0  0  0  0  0  0
    3.0000    2.5981    0.0000 C   0  0  0  0  0  0  0  0  0  0  0  0
    2.2500    3.8971    0.0000 C   0  0  0  0  0  0  0  0  0  0  0  0
    0.7500    3.8971    0.0000 C   0  0  0  0  0  0  0  0  0  0  0  0
    0.0000    5.1962    0.0000 O   0  0  0  0  0  0  0  0  0  0  0  0
    0.7500    6.4952    0.0000 C   0  0  0  0  0  0  0  0  0  0  0  0
    0.0000    2.5981    0.0000 C   0  0  0  0  0  0  0  0  0  0  0  0
   -1.5000    0.0000    0.0000 C   0  0  0  0  0  0  0  0  0  0  0  0
   -2.2500    1.2990    0.0000 C   0  0  0  0  0  0  0  0  0  0  0  0
   -3.7500    1.2990    0.0000 C   0  0  0  0  0  0  0  0  0  0  0  0
   -4.5000    0.0000    0.0000 C   0  0  0  0  0  0  0  0  0  0  0  0
   -3.7500   -1.2990    0.0000 C   0  0  0  0  0  0  0  0  0  0  0  0
   -4.5000   -2.5981    0.0000 O   0  0  0  0  0  0  0  0  0  0  0  0
   -6.0000   -2.5981    0.0000 C   0  0  0  0  0  0  0  0  0  0  0  0
   -2.2500   -1.2990    0.0000 C   0  0  0  0  0  0  0  0  0  0  0  0
    2.2500   -1.2990    0.0000 C   0  0  0  0  0  0  0  0  0  0  0  0
  1  2  1  0
  2  3  1  0
  3  4  2  0
  4  5  1  0
  5  6  2  0
  6  7  1  0
  7  8  1  0
  8  9  1  0
  9 10  2  0
 10 11  1  0
 11 12  2  0
 12 13  1  0
 13 14  1  0
 14 15  1  0
 13 16  2  0
  8 17  1  0
 17 18  2  0
 18 19  1  0
 19 20  2  0
 20 21  1  0
 21 22  1  0
 22 23  1  0
 21 24  2  0
  7 25  2  0
 25  3  1  0
 16  9  1  0
 24 17  1  0
M  END
>  <linear_selectivity>  (407) 
38

>  <denticity>  (407) 
1

>  <ligand_class>  (407) 
phosphine

$$$$
P(2-MeO-Ph)3_100C_xylene
     RDKit          2D

 25 27  0  0  0  0  0  0  0  0999 V2000
    5.2500   -3.8971    0.0000 C   0  0  0  0  0  0  0  0  0  0  0  0
    4.5000   -2.5981    0.0000 O   0  0  0  0  0  0  0  0  0  0  0  0
    3.0000   -2.5981    0.0000 C   0  0  0  0  0  0  0  0  0  0  0  0
    2.2500   -3.8971    0.0000 C   0  0  0  0  0  0  0  0  0  0  0  0
    0.7500   -3.8971    0.0000 C   0  0  0  0  0  0  0  0  0  0  0  0
   -0.0000   -2.5981    0.0000 C   0  0  0  0  0  0  0  0  0  0  0  0
    0.7500   -1.2990    0.0000 C   0  0  0  0  0  0  0  0  0  0  0  0
    0.0000    0.0000    0.0000 P   0  0  0  0  0  0  0  0  0  0  0  0
    0.7500    1.2990    0.0000 C   0  0  0  0  0  0  0  0  0  0  0  0
    2.2500    1.2990    0.0000 C   0  0  0  0  0  0  0  0  0  0  0  0
    3.0000    2.5981    0.0000 C   0  0  0  0  0  0  0  0  0  0  0  0
    2.2500    3.8971    0.0000 C   0  0  0  0  0  0  0  0  0  0  0  0
    0.7500    3.8971    0.0000 C   0  0  0  0  0  0  0  0  0  0  0  0
    0.0000    5.1962    0.0000 O   0  0  0  0  0  0  0  0  0  0  0  0
    0.7500    6.4952    0.0000 C   0  0  0  0  0  0  0  0  0  0  0  0
    0.0000    2.5981    0.0000 C   0  0  0  0  0  0  0  0  0  0  0  0
   -1.5000    0.0000    0.0000 C   0  0  0  0  0  0  0  0  0  0  0  0
   -2.2500    1.2990    0.0000 C   0  0  0  0  0  0  0  0  0  0  0  0
   -3.7500    1.2990    0.0000 C   0  0  0  0  0  0  0  0  0  0  0  0
   -4.5000    0.0000    0.0000 C   0  0  0  0  0  0  0  0  0  0  0  0
   -3.7500   -1.2990    0.0000 C   0  0  0  0  0  0  0  0  0  0  0  0
   -4.5000   -2.5981    0.0000 O   0  0  0  0  0  0  0  0  0  0  0  0
   -6.0000   -2.5981    0.0000 C   0  0  0  0  0  0  0  0  0  0  0  0
   -2.2500   -1.2990    0.0000 C   0  0  0  0  0  0  0  0  0  0  0  0
    2.2500   -1.2990    0.0000 C   0  0  0  0  0  0  0  0  0  0  0  0
  1  2  1  0
  2  3  1  0
  3  4  2  0
  4  5  1  0
  5  6  2  0
  6  7  1  0
  7  8  1  0
  8  9  1  0
  9 10  2  0
 10 11  1  0
 11 12  2  0
 12 13  1  0
 13 14  1  0
 14 15  1  0
 13 16  2  0
  8 17  1  0
 17 18  2  0
 18 19  1  0
 19 20  2  0
 20 21  1  0
 21 22  1  0
 22 23  1  0
 21 24  2  0
  7 25  2  0
 25  3  1  0
 16  9  1  0
 24 17  1  0
M  END
>  <linear_selectivity>  (408) 
37

>  <denticity>  (408) 
1

>  <ligand_class>  (408) 
phosphine

$$$$
P(2-MeO-Ph)3_110C_toluene
     RDKit          2D

 25 27  0  0  0  0  0  0  0  0999 V2000
    5.2500   -3.8971    0.0000 C   0  0  0  0  0  0  0  0  0  0  0  0
    4.5000   -2.5981    0.0000 O   0  0  0  0  0  0  0  0  0  0  0  0
    3.0000   -2.5981    0.0000 C   0  0  0  0  0  0  0  0  0  0  0  0
    2.2500   -3.8971    0.0000 C   0  0  0  0  0  0  0  0  0  0  0  0
    0.7500   -3.8971    0.0000 C   0  0  0  0  0  0  0  0  0  0  0  0
   -0.0000   -2.5981    0.0000 C   0  0  0  0  0  0  0  0  0  0  0  0
    0.7500   -1.2990    0.0000 C   0  0  0  0  0  0  0  0  0  0  0  0
    0.0000    0.0000    0.0000 P   0  0  0  0  0  0  0  0  0  0  0  0
    0.7500    1.2990    0.0000 C   0  0  0  0  0  0  0  0  0  0  0  0
    2.2500    1.2990    0.0000 C   0  0  0  0  0  0  0  0  0  0  0  0
    3.0000    2.5981    0.0000 C   0  0  0  0  0  0  0  0  0  0  0  0
    2.2500    3.8971    0.0000 C   0  0  0  0  0  0  0  0  0  0  0  0
    0.7500    3.8971    0.0000 C   0  0  0  0  0  0  0  0  0  0  0  0
    0.0000    5.1962    0.0000 O   0  0  0  0  0  0  0  0  0  0  0  0
    0.7500    6.4952    0.0000 C   0  0  0  0  0  0  0  0  0  0  0  0
    0.0000    2.5981    0.0000 C   0  0  0  0  0  0  0  0  0  0  0  0
   -1.5000    0.0000    0.0000 C   0  0  0  0  0  0  0  0  0  0  0  0
   -2.2500    1.2990    0.0000 C   0  0  0  0  0  0  0  0  0  0  0  0
   -3.7500    1.2990    0.0000 C   0  0  0  0  0  0  0  0  0  0  0  0
   -4.5000    0.0000    0.0000 C   0  0  0  0  0  0  0  0  0  0  0  0
   -3.7500   -1.2990    0.0000 C   0  0  0  0  0  0  0  0  0  0  0  0
   -4.5000   -2.5981    0.0000 O   0  0  0  0  0  0  0  0  0  0  0  0
   -6.0000   -2.5981    0.0000 C   0  0  0  0  0  0  0  0  0  0  0  0
   -2.2500   -1.2990    0.0000 C   0  0  0  0  0  0  0  0  0  0  0  0
    2.2500   -1.2990    0.0000 C   0  0  0  0  0  0  0  0  0  0  0  0
  1  2  1  0
  2  3  1  0
  3  4  2  0
  4  5  1  0
  5  6  2  0
  6  7  1  0
  7  8  1  0
  8  9  1  0
  9 10  2  0
 10 11  1  0
 11 12  2  0
 12 13  1  0
 13 14  1  0
 14 15  1  0
 13 16  2  0
  8 17  1  0
 17 18  2  0
 18 19  1  0
 19 20  2  0
 20 21  1  0
 21 22  1  0
 22 23  1  0
 21 24  2  0
  7 25  2  0
 25  3  1  0
 16  9  1  0
 24 17  1  0
M  END
>  <linear_selectivity>  (409) 
35

>  <denticity>  (409) 
1

>  <ligand_class>  (409) 
phosphine

$$$$
P(2-MeO-Ph)3_110C_THF
     RDKit          2D

 25 27  0  0  0  0  0  0  0  0999 V2000
    5.2500   -3.8971    0.0000 C   0  0  0  0  0  0  0  0  0  0  0  0
    4.5000   -2.5981    0.0000 O   0  0  0  0  0  0  0  0  0  0  0  0
    3.0000   -2.5981    0.0000 C   0  0  0  0  0  0  0  0  0  0  0  0
    2.2500   -3.8971    0.0000 C   0  0  0  0  0  0  0  0  0  0  0  0
    0.7500   -3.8971    0.0000 C   0  0  0  0  0  0  0  0  0  0  0  0
   -0.0000   -2.5981    0.0000 C   0  0  0  0  0  0  0  0  0  0  0  0
    0.7500   -1.2990    0.0000 C   0  0  0  0  0  0  0  0  0  0  0  0
    0.0000    0.0000    0.0000 P   0  0  0  0  0  0  0  0  0  0  0  0
    0.7500    1.2990    0.0000 C   0  0  0  0  0  0  0  0  0  0  0  0
    2.2500    1.2990    0.0000 C   0  0  0  0  0  0  0  0  0  0  0  0
    3.0000    2.5981    0.0000 C   0  0  0  0  0  0  0  0  0  0  0  0
    2.2500    3.8971    0.0000 C   0  0  0  0  0  0  0  0  0  0  0  0
    0.7500    3.8971    0.0000 C   0  0  0  0  0  0  0  0  0  0  0  0
    0.0000    5.1962    0.0000 O   0  0  0  0  0  0  0  0  0  0  0  0
    0.7500    6.4952    0.0000 C   0  0  0  0  0  0  0  0  0  0  0  0
    0.0000    2.5981    0.0000 C   0  0  0  0  0  0  0  0  0  0  0  0
   -1.5000    0.0000    0.0000 C   0  0  0  0  0  0  0  0  0  0  0  0
   -2.2500    1.2990    0.0000 C   0  0  0  0  0  0  0  0  0  0  0  0
   -3.7500    1.2990    0.0000 C   0  0  0  0  0  0  0  0  0  0  0  0
   -4.5000    0.0000    0.0000 C   0  0  0  0  0  0  0  0  0  0  0  0
   -3.7500   -1.2990    0.0000 C   0  0  0  0  0  0  0  0  0  0  0  0
   -4.5000   -2.5981    0.0000 O   0  0  0  0  0  0  0  0  0  0  0  0
   -6.0000   -2.5981    0.0000 C   0  0  0  0  0  0  0  0  0  0  0  0
   -2.2500   -1.2990    0.0000 C   0  0  0  0  0  0  0  0  0  0  0  0
    2.2500   -1.2990    0.0000 C   0  0  0  0  0  0  0  0  0  0  0  0
  1  2  1  0
  2  3  1  0
  3  4  2  0
  4  5  1  0
  5  6  2  0
  6  7  1  0
  7  8  1  0
  8  9  1  0
  9 10  2  0
 10 11  1  0
 11 12  2  0
 12 13  1  0
 13 14  1  0
 14 15  1  0
 13 16  2  0
  8 17  1  0
 17 18  2  0
 18 19  1  0
 19 20  2  0
 20 21  1  0
 21 22  1  0
 22 23  1  0
 21 24  2  0
  7 25  2  0
 25  3  1  0
 16  9  1  0
 24 17  1  0
M  END
>  <linear_selectivity>  (410) 
34

>  <denticity>  (410) 
1

>  <ligand_class>  (410) 
phosphine

$$$$
P(2-MeO-Ph)3_110C_dioxane
     RDKit          2D

 25 27  0  0  0  0  0  0  0  0999 V2000
    5.2500   -3.8971    0.0000 C   0  0  0  0  0  0  0  0  0  0  0  0
    4.5000   -2.5981    0.0000 O   0  0  0  0  0  0  0  0  0  0  0  0
    3.0000   -2.5981    0.0000 C   0  0  0  0  0  0  0  0  0  0  0  0
    2.2500   -3.8971    0.0000 C   0  0  0  0  0  0  0  0  0  0  0  0
    0.7500   -3.8971    0.0000 C   0  0  0  0  0  0  0  0  0  0  0  0
   -0.0000   -2.5981    0.0000 C   0  0  0  0  0  0  0  0  0  0  0  0
    0.7500   -1.2990    0.0000 C   0  0  0  0  0  0  0  0  0  0  0  0
    0.0000    0.0000    0.0000 P   0  0  0  0  0  0  0  0  0  0  0  0
    0.7500    1.2990    0.0000 C   0  0  0  0  0  0  0  0  0  0  0  0
    2.2500    1.2990    0.0000 C   0  0  0  0  0  0  0  0  0  0  0  0
    3.0000    2.5981    0.0000 C   0  0  0  0  0  0  0  0  0  0  0  0
    2.2500    3.8971    0.0000 C   0  0  0  0  0  0  0  0  0  0  0  0
    0.7500    3.8971    0.0000 C   0  0  0  0  0  0  0  0  0  0  0  0
    0.0000    5.1962    0.0000 O   0  0  0  0  0  0  0  0  0  0  0  0
    0.7500    6.4952    0.0000 C   0  0  0  0  0  0  0  0  0  0  0  0
    0.0000    2.5981    0.0000 C   0  0  0  0  0  0  0  0  0  0  0  0
   -1.5000    0.0000    0.0000 C   0  0  0  0  0  0  0  0  0  0  0  0
   -2.2500    1.2990    0.0000 C   0  0  0  0  0  0  0  0  0  0  0  0
   -3.7500    1.2990    0.0000 C   0  0  0  0  0  0  0  0  0  0  0  0
   -4.5000    0.0000    0.0000 C   0  0  0  0  0  0  0  0  0  0  0  0
   -3.7500   -1.2990    0.0000 C   0  0  0  0  0  0  0  0  0  0  0  0
   -4.5000   -2.5981    0.0000 O   0  0  0  0  0  0  0  0  0  0  0  0
   -6.0000   -2.5981    0.0000 C   0  0  0  0  0  0  0  0  0  0  0  0
   -2.2500   -1.2990    0.0000 C   0  0  0  0  0  0  0  0  0  0  0  0
    2.2500   -1.2990    0.0000 C   0  0  0  0  0  0  0  0  0  0  0  0
  1  2  1  0
  2  3  1  0
  3  4  2  0
  4  5  1  0
  5  6  2  0
  6  7  1  0
  7  8  1  0
  8  9  1  0
  9 10  2  0
 10 11  1  0
 11 12  2  0
 12 13  1  0
 13 14  1  0
 14 15  1  0
 13 16  2  0
  8 17  1  0
 17 18  2  0
 18 19  1  0
 19 20  2  0
 20 21  1  0
 21 22  1  0
 22 23  1  0
 21 24  2  0
  7 25  2  0
 25  3  1  0
 16  9  1  0
 24 17  1  0
M  END
>  <linear_selectivity>  (411) 
36

>  <denticity>  (411) 
1

>  <ligand_class>  (411) 
phosphine

$$$$
P(2-MeO-Ph)3_110C_benzene
     RDKit          2D

 25 27  0  0  0  0  0  0  0  0999 V2000
    5.2500   -3.8971    0.0000 C   0  0  0  0  0  0  0  0  0  0  0  0
    4.5000   -2.5981    0.0000 O   0  0  0  0  0  0  0  0  0  0  0  0
    3.0000   -2.5981    0.0000 C   0  0  0  0  0  0  0  0  0  0  0  0
    2.2500   -3.8971    0.0000 C   0  0  0  0  0  0  0  0  0  0  0  0
    0.7500   -3.8971    0.0000 C   0  0  0  0  0  0  0  0  0  0  0  0
   -0.0000   -2.5981    0.0000 C   0  0  0  0  0  0  0  0  0  0  0  0
    0.7500   -1.2990    0.0000 C   0  0  0  0  0  0  0  0  0  0  0  0
    0.0000    0.0000    0.0000 P   0  0  0  0  0  0  0  0  0  0  0  0
    0.7500    1.2990    0.0000 C   0  0  0  0  0  0  0  0  0  0  0  0
    2.2500    1.2990    0.0000 C   0  0  0  0  0  0  0  0  0  0  0  0
    3.0000    2.5981    0.0000 C   0  0  0  0  0  0  0  0  0  0  0  0
    2.2500    3.8971    0.0000 C   0  0  0  0  0  0  0  0  0  0  0  0
    0.7500    3.8971    0.0000 C   0  0  0  0  0  0  0  0  0  0  0  0
    0.0000    5.1962    0.0000 O   0  0  0  0  0  0  0  0  0  0  0  0
    0.7500    6.4952    0.0000 C   0  0  0  0  0  0  0  0  0  0  0  0
    0.0000    2.5981    0.0000 C   0  0  0  0  0  0  0  0  0  0  0  0
   -1.5000    0.0000    0.0000 C   0  0  0  0  0  0  0  0  0  0  0  0
   -2.2500    1.2990    0.0000 C   0  0  0  0  0  0  0  0  0  0  0  0
   -3.7500    1.2990    0.0000 C   0  0  0  0  0  0  0  0  0  0  0  0
   -4.5000    0.0000    0.0000 C   0  0  0  0  0  0  0  0  0  0  0  0
   -3.7500   -1.2990    0.0000 C   0  0  0  0  0  0  0  0  0  0  0  0
   -4.5000   -2.5981    0.0000 O   0  0  0  0  0  0  0  0  0  0  0  0
   -6.0000   -2.5981    0.0000 C   0  0  0  0  0  0  0  0  0  0  0  0
   -2.2500   -1.2990    0.0000 C   0  0  0  0  0  0  0  0  0  0  0  0
    2.2500   -1.2990    0.0000 C   0  0  0  0  0  0  0  0  0  0  0  0
  1  2  1  0
  2  3  1  0
  3  4  2  0
  4  5  1  0
  5  6  2  0
  6  7  1  0
  7  8  1  0
  8  9  1  0
  9 10  2  0
 10 11  1  0
 11 12  2  0
 12 13  1  0
 13 14  1  0
 14 15  1  0
 13 16  2  0
  8 17  1  0
 17 18  2  0
 18 19  1  0
 19 20  2  0
 20 21  1  0
 21 22  1  0
 22 23  1  0
 21 24  2  0
  7 25  2  0
 25  3  1  0
 16  9  1  0
 24 17  1  0
M  END
>  <linear_selectivity>  (412) 
33

>  <denticity>  (412) 
1

>  <ligand_class>  (412) 
phosphine

$$$$
P(2-MeO-Ph)3_120C_toluene
     RDKit          2D

 25 27  0  0  0  0  0  0  0  0999 V2000
    5.2500   -3.8971    0.0000 C   0  0  0  0  0  0  0  0  0  0  0  0
    4.5000   -2.5981    0.0000 O   0  0  0  0  0  0  0  0  0  0  0  0
    3.0000   -2.5981    0.0000 C   0  0  0  0  0  0  0  0  0  0  0  0
    2.2500   -3.8971    0.0000 C   0  0  0  0  0  0  0  0  0  0  0  0
    0.7500   -3.8971    0.0000 C   0  0  0  0  0  0  0  0  0  0  0  0
   -0.0000   -2.5981    0.0000 C   0  0  0  0  0  0  0  0  0  0  0  0
    0.7500   -1.2990    0.0000 C   0  0  0  0  0  0  0  0  0  0  0  0
    0.0000    0.0000    0.0000 P   0  0  0  0  0  0  0  0  0  0  0  0
    0.7500    1.2990    0.0000 C   0  0  0  0  0  0  0  0  0  0  0  0
    2.2500    1.2990    0.0000 C   0  0  0  0  0  0  0  0  0  0  0  0
    3.0000    2.5981    0.0000 C   0  0  0  0  0  0  0  0  0  0  0  0
    2.2500    3.8971    0.0000 C   0  0  0  0  0  0  0  0  0  0  0  0
    0.7500    3.8971    0.0000 C   0  0  0  0  0  0  0  0  0  0  0  0
    0.0000    5.1962    0.0000 O   0  0  0  0  0  0  0  0  0  0  0  0
    0.7500    6.4952    0.0000 C   0  0  0  0  0  0  0  0  0  0  0  0
    0.0000    2.5981    0.0000 C   0  0  0  0  0  0  0  0  0  0  0  0
   -1.5000    0.0000    0.0000 C   0  0  0  0  0  0  0  0  0  0  0  0
   -2.2500    1.2990    0.0000 C   0  0  0  0  0  0  0  0  0  0  0  0
   -3.7500    1.2990    0.0000 C   0  0  0  0  0  0  0  0  0  0  0  0
   -4.5000    0.0000    0.0000 C   0  0  0  0  0  0  0  0  0  0  0  0
   -3.7500   -1.2990    0.0000 C   0  0  0  0  0  0  0  0  0  0  0  0
   -4.5000   -2.5981    0.0000 O   0  0  0  0  0  0  0  0  0  0  0  0
   -6.0000   -2.5981    0.0000 C   0  0  0  0  0  0  0  0  0  0  0  0
   -2.2500   -1.2990    0.0000 C   0  0  0  0  0  0  0  0  0  0  0  0
    2.2500   -1.2990    0.0000 C   0  0  0  0  0  0  0  0  0  0  0  0
  1  2  1  0
  2  3  1  0
  3  4  2  0
  4  5  1  0
  5  6  2  0
  6  7  1  0
  7  8  1  0
  8  9  1  0
  9 10  2  0
 10 11  1  0
 11 12  2  0
 12 13  1  0
 13 14  1  0
 14 15  1  0
 13 16  2  0
  8 17  1  0
 17 18  2  0
 18 19  1  0
 19 20  2  0
 20 21  1  0
 21 22  1  0
 22 23  1  0
 21 24  2  0
  7 25  2  0
 25  3  1  0
 16  9  1  0
 24 17  1  0
M  END
>  <linear_selectivity>  (413) 
32

>  <denticity>  (413) 
1

>  <ligand_class>  (413) 
phosphine

$$$$
P(2-MeO-Ph)3_120C_THF
     RDKit          2D

 25 27  0  0  0  0  0  0  0  0999 V2000
    5.2500   -3.8971    0.0000 C   0  0  0  0  0  0  0  0  0  0  0  0
    4.5000   -2.5981    0.0000 O   0  0  0  0  0  0  0  0  0  0  0  0
    3.0000   -2.5981    0.0000 C   0  0  0  0  0  0  0  0  0  0  0  0
    2.2500   -3.8971    0.0000 C   0  0  0  0  0  0  0  0  0  0  0  0
    0.7500   -3.8971    0.0000 C   0  0  0  0  0  0  0  0  0  0  0  0
   -0.0000   -2.5981    0.0000 C   0  0  0  0  0  0  0  0  0  0  0  0
    0.7500   -1.2990    0.0000 C   0  0  0  0  0  0  0  0  0  0  0  0
    0.0000    0.0000    0.0000 P   0  0  0  0  0  0  0  0  0  0  0  0
    0.7500    1.2990    0.0000 C   0  0  0  0  0  0  0  0  0  0  0  0
    2.2500    1.2990    0.0000 C   0  0  0  0  0  0  0  0  0  0  0  0
    3.0000    2.5981    0.0000 C   0  0  0  0  0  0  0  0  0  0  0  0
    2.2500    3.8971    0.0000 C   0  0  0  0  0  0  0  0  0  0  0  0
    0.7500    3.8971    0.0000 C   0  0  0  0  0  0  0  0  0  0  0  0
    0.0000    5.1962    0.0000 O   0  0  0  0  0  0  0  0  0  0  0  0
    0.7500    6.4952    0.0000 C   0  0  0  0  0  0  0  0  0  0  0  0
    0.0000    2.5981    0.0000 C   0  0  0  0  0  0  0  0  0  0  0  0
   -1.5000    0.0000    0.0000 C   0  0  0  0  0  0  0  0  0  0  0  0
   -2.2500    1.2990    0.0000 C   0  0  0  0  0  0  0  0  0  0  0  0
   -3.7500    1.2990    0.0000 C   0  0  0  0  0  0  0  0  0  0  0  0
   -4.5000    0.0000    0.0000 C   0  0  0  0  0  0  0  0  0  0  0  0
   -3.7500   -1.2990    0.0000 C   0  0  0  0  0  0  0  0  0  0  0  0
   -4.5000   -2.5981    0.0000 O   0  0  0  0  0  0  0  0  0  0  0  0
   -6.0000   -2.5981    0.0000 C   0  0  0  0  0  0  0  0  0  0  0  0
   -2.2500   -1.2990    0.0000 C   0  0  0  0  0  0  0  0  0  0  0  0
    2.2500   -1.2990    0.0000 C   0  0  0  0  0  0  0  0  0  0  0  0
  1  2  1  0
  2  3  1  0
  3  4  2  0
  4  5  1  0
  5  6  2  0
  6  7  1  0
  7  8  1  0
  8  9  1  0
  9 10  2  0
 10 11  1  0
 11 12  2  0
 12 13  1  0
 13 14  1  0
 14 15  1  0
 13 16  2  0
  8 17  1  0
 17 18  2  0
 18 19  1  0
 19 20  2  0
 20 21  1  0
 21 22  1  0
 22 23  1  0
 21 24  2  0
  7 25  2  0
 25  3  1  0
 16  9  1  0
 24 17  1  0
M  END
>  <linear_selectivity>  (414) 
31

>  <denticity>  (414) 
1

>  <ligand_class>  (414) 
phosphine

$$$$
P(2-MeO-Ph)3_120C_dioxane
     RDKit          2D

 25 27  0  0  0  0  0  0  0  0999 V2000
    5.2500   -3.8971    0.0000 C   0  0  0  0  0  0  0  0  0  0  0  0
    4.5000   -2.5981    0.0000 O   0  0  0  0  0  0  0  0  0  0  0  0
    3.0000   -2.5981    0.0000 C   0  0  0  0  0  0  0  0  0  0  0  0
    2.2500   -3.8971    0.0000 C   0  0  0  0  0  0  0  0  0  0  0  0
    0.7500   -3.8971    0.0000 C   0  0  0  0  0  0  0  0  0  0  0  0
   -0.0000   -2.5981    0.0000 C   0  0  0  0  0  0  0  0  0  0  0  0
    0.7500   -1.2990    0.0000 C   0  0  0  0  0  0  0  0  0  0  0  0
    0.0000    0.0000    0.0000 P   0  0  0  0  0  0  0  0  0  0  0  0
    0.7500    1.2990    0.0000 C   0  0  0  0  0  0  0  0  0  0  0  0
    2.2500    1.2990    0.0000 C   0  0  0  0  0  0  0  0  0  0  0  0
    3.0000    2.5981    0.0000 C   0  0  0  0  0  0  0  0  0  0  0  0
    2.2500    3.8971    0.0000 C   0  0  0  0  0  0  0  0  0  0  0  0
    0.7500    3.8971    0.0000 C   0  0  0  0  0  0  0  0  0  0  0  0
    0.0000    5.1962    0.0000 O   0  0  0  0  0  0  0  0  0  0  0  0
    0.7500    6.4952    0.0000 C   0  0  0  0  0  0  0  0  0  0  0  0
    0.0000    2.5981    0.0000 C   0  0  0  0  0  0  0  0  0  0  0  0
   -1.5000    0.0000    0.0000 C   0  0  0  0  0  0  0  0  0  0  0  0
   -2.2500    1.2990    0.0000 C   0  0  0  0  0  0  0  0  0  0  0  0
   -3.7500    1.2990    0.0000 C   0  0  0  0  0  0  0  0  0  0  0  0
   -4.5000    0.0000    0.0000 C   0  0  0  0  0  0  0  0  0  0  0  0
   -3.7500   -1.2990    0.0000 C   0  0  0  0  0  0  0  0  0  0  0  0
   -4.5000   -2.5981    0.0000 O   0  0  0  0  0  0  0  0  0  0  0  0
   -6.0000   -2.5981    0.0000 C   0  0  0  0  0  0  0  0  0  0  0  0
   -2.2500   -1.2990    0.0000 C   0  0  0  0  0  0  0  0  0  0  0  0
    2.2500   -1.2990    0.0000 C   0  0  0  0  0  0  0  0  0  0  0  0
  1  2  1  0
  2  3  1  0
  3  4  2  0
  4  5  1  0
  5  6  2  0
  6  7  1  0
  7  8  1  0
  8  9  1  0
  9 10  2  0
 10 11  1  0
 11 12  2  0
 12 13  1  0
 13 14  1  0
 14 15  1  0
 13 16  2  0
  8 17  1  0
 17 18  2  0
 18 19  1  0
 19 20  2  0
 20 21  1  0
 21 22  1  0
 22 23  1  0
 21 24  2  0
  7 25  2  0
 25  3  1  0
 16  9  1  0
 24 17  1  0
M  END
>  <linear_selectivity>  (415) 
35

>  <denticity>  (415) 
1

>  <ligand_class>  (415) 
phosphine

$$$$
P(2-MeO-Ph)3_120C_hexane
     RDKit          2D

 25 27  0  0  0  0  0  0  0  0999 V2000
    5.2500   -3.8971    0.0000 C   0  0  0  0  0  0  0  0  0  0  0  0
    4.5000   -2.5981    0.0000 O   0  0  0  0  0  0  0  0  0  0  0  0
    3.0000   -2.5981    0.0000 C   0  0  0  0  0  0  0  0  0  0  0  0
    2.2500   -3.8971    0.0000 C   0  0  0  0  0  0  0  0  0  0  0  0
    0.7500   -3.8971    0.0000 C   0  0  0  0  0  0  0  0  0  0  0  0
   -0.0000   -2.5981    0.0000 C   0  0  0  0  0  0  0  0  0  0  0  0
    0.7500   -1.2990    0.0000 C   0  0  0  0  0  0  0  0  0  0  0  0
    0.0000    0.0000    0.0000 P   0  0  0  0  0  0  0  0  0  0  0  0
    0.7500    1.2990    0.0000 C   0  0  0  0  0  0  0  0  0  0  0  0
    2.2500    1.2990    0.0000 C   0  0  0  0  0  0  0  0  0  0  0  0
    3.0000    2.5981    0.0000 C   0  0  0  0  0  0  0  0  0  0  0  0
    2.2500    3.8971    0.0000 C   0  0  0  0  0  0  0  0  0  0  0  0
    0.7500    3.8971    0.0000 C   0  0  0  0  0  0  0  0  0  0  0  0
    0.0000    5.1962    0.0000 O   0  0  0  0  0  0  0  0  0  0  0  0
    0.7500    6.4952    0.0000 C   0  0  0  0  0  0  0  0  0  0  0  0
    0.0000    2.5981    0.0000 C   0  0  0  0  0  0  0  0  0  0  0  0
   -1.5000    0.0000    0.0000 C   0  0  0  0  0  0  0  0  0  0  0  0
   -2.2500    1.2990    0.0000 C   0  0  0  0  0  0  0  0  0  0  0  0
   -3.7500    1.2990    0.0000 C   0  0  0  0  0  0  0  0  0  0  0  0
   -4.5000    0.0000    0.0000 C   0  0  0  0  0  0  0  0  0  0  0  0
   -3.7500   -1.2990    0.0000 C   0  0  0  0  0  0  0  0  0  0  0  0
   -4.5000   -2.5981    0.0000 O   0  0  0  0  0  0  0  0  0  0  0  0
   -6.0000   -2.5981    0.0000 C   0  0  0  0  0  0  0  0  0  0  0  0
   -2.2500   -1.2990    0.0000 C   0  0  0  0  0  0  0  0  0  0  0  0
    2.2500   -1.2990    0.0000 C   0  0  0  0  0  0  0  0  0  0  0  0
  1  2  1  0
  2  3  1  0
  3  4  2  0
  4  5  1  0
  5  6  2  0
  6  7  1  0
  7  8  1  0
  8  9  1  0
  9 10  2  0
 10 11  1  0
 11 12  2  0
 12 13  1  0
 13 14  1  0
 14 15  1  0
 13 16  2  0
  8 17  1  0
 17 18  2  0
 18 19  1  0
 19 20  2  0
 20 21  1  0
 21 22  1  0
 22 23  1  0
 21 24  2  0
  7 25  2  0
 25  3  1  0
 16  9  1  0
 24 17  1  0
M  END
>  <linear_selectivity>  (416) 
33

>  <denticity>  (416) 
1

>  <ligand_class>  (416) 
phosphine

$$$$
P(2-MeO-Ph)3_120C_benzene
     RDKit          2D

 25 27  0  0  0  0  0  0  0  0999 V2000
    5.2500   -3.8971    0.0000 C   0  0  0  0  0  0  0  0  0  0  0  0
    4.5000   -2.5981    0.0000 O   0  0  0  0  0  0  0  0  0  0  0  0
    3.0000   -2.5981    0.0000 C   0  0  0  0  0  0  0  0  0  0  0  0
    2.2500   -3.8971    0.0000 C   0  0  0  0  0  0  0  0  0  0  0  0
    0.7500   -3.8971    0.0000 C   0  0  0  0  0  0  0  0  0  0  0  0
   -0.0000   -2.5981    0.0000 C   0  0  0  0  0  0  0  0  0  0  0  0
    0.7500   -1.2990    0.0000 C   0  0  0  0  0  0  0  0  0  0  0  0
    0.0000    0.0000    0.0000 P   0  0  0  0  0  0  0  0  0  0  0  0
    0.7500    1.2990    0.0000 C   0  0  0  0  0  0  0  0  0  0  0  0
    2.2500    1.2990    0.0000 C   0  0  0  0  0  0  0  0  0  0  0  0
    3.0000    2.5981    0.0000 C   0  0  0  0  0  0  0  0  0  0  0  0
    2.2500    3.8971    0.0000 C   0  0  0  0  0  0  0  0  0  0  0  0
    0.7500    3.8971    0.0000 C   0  0  0  0  0  0  0  0  0  0  0  0
    0.0000    5.1962    0.0000 O   0  0  0  0  0  0  0  0  0  0  0  0
    0.7500    6.4952    0.0000 C   0  0  0  0  0  0  0  0  0  0  0  0
    0.0000    2.5981    0.0000 C   0  0  0  0  0  0  0  0  0  0  0  0
   -1.5000    0.0000    0.0000 C   0  0  0  0  0  0  0  0  0  0  0  0
   -2.2500    1.2990    0.0000 C   0  0  0  0  0  0  0  0  0  0  0  0
   -3.7500    1.2990    0.0000 C   0  0  0  0  0  0  0  0  0  0  0  0
   -4.5000    0.0000    0.0000 C   0  0  0  0  0  0  0  0  0  0  0  0
   -3.7500   -1.2990    0.0000 C   0  0  0  0  0  0  0  0  0  0  0  0
   -4.5000   -2.5981    0.0000 O   0  0  0  0  0  0  0  0  0  0  0  0
   -6.0000   -2.5981    0.0000 C   0  0  0  0  0  0  0  0  0  0  0  0
   -2.2500   -1.2990    0.0000 C   0  0  0  0  0  0  0  0  0  0  0  0
    2.2500   -1.2990    0.0000 C   0  0  0  0  0  0  0  0  0  0  0  0
  1  2  1  0
  2  3  1  0
  3  4  2  0
  4  5  1  0
  5  6  2  0
  6  7  1  0
  7  8  1  0
  8  9  1  0
  9 10  2  0
 10 11  1  0
 11 12  2  0
 12 13  1  0
 13 14  1  0
 14 15  1  0
 13 16  2  0
  8 17  1  0
 17 18  2  0
 18 19  1  0
 19 20  2  0
 20 21  1  0
 21 22  1  0
 22 23  1  0
 21 24  2  0
  7 25  2  0
 25  3  1  0
 16  9  1  0
 24 17  1  0
M  END
>  <linear_selectivity>  (417) 
36

>  <denticity>  (417) 
1

>  <ligand_class>  (417) 
phosphine

$$$$
P(2-MeO-Ph)3_120C_xylene
     RDKit          2D

 25 27  0  0  0  0  0  0  0  0999 V2000
    5.2500   -3.8971    0.0000 C   0  0  0  0  0  0  0  0  0  0  0  0
    4.5000   -2.5981    0.0000 O   0  0  0  0  0  0  0  0  0  0  0  0
    3.0000   -2.5981    0.0000 C   0  0  0  0  0  0  0  0  0  0  0  0
    2.2500   -3.8971    0.0000 C   0  0  0  0  0  0  0  0  0  0  0  0
    0.7500   -3.8971    0.0000 C   0  0  0  0  0  0  0  0  0  0  0  0
   -0.0000   -2.5981    0.0000 C   0  0  0  0  0  0  0  0  0  0  0  0
    0.7500   -1.2990    0.0000 C   0  0  0  0  0  0  0  0  0  0  0  0
    0.0000    0.0000    0.0000 P   0  0  0  0  0  0  0  0  0  0  0  0
    0.7500    1.2990    0.0000 C   0  0  0  0  0  0  0  0  0  0  0  0
    2.2500    1.2990    0.0000 C   0  0  0  0  0  0  0  0  0  0  0  0
    3.0000    2.5981    0.0000 C   0  0  0  0  0  0  0  0  0  0  0  0
    2.2500    3.8971    0.0000 C   0  0  0  0  0  0  0  0  0  0  0  0
    0.7500    3.8971    0.0000 C   0  0  0  0  0  0  0  0  0  0  0  0
    0.0000    5.1962    0.0000 O   0  0  0  0  0  0  0  0  0  0  0  0
    0.7500    6.4952    0.0000 C   0  0  0  0  0  0  0  0  0  0  0  0
    0.0000    2.5981    0.0000 C   0  0  0  0  0  0  0  0  0  0  0  0
   -1.5000    0.0000    0.0000 C   0  0  0  0  0  0  0  0  0  0  0  0
   -2.2500    1.2990    0.0000 C   0  0  0  0  0  0  0  0  0  0  0  0
   -3.7500    1.2990    0.0000 C   0  0  0  0  0  0  0  0  0  0  0  0
   -4.5000    0.0000    0.0000 C   0  0  0  0  0  0  0  0  0  0  0  0
   -3.7500   -1.2990    0.0000 C   0  0  0  0  0  0  0  0  0  0  0  0
   -4.5000   -2.5981    0.0000 O   0  0  0  0  0  0  0  0  0  0  0  0
   -6.0000   -2.5981    0.0000 C   0  0  0  0  0  0  0  0  0  0  0  0
   -2.2500   -1.2990    0.0000 C   0  0  0  0  0  0  0  0  0  0  0  0
    2.2500   -1.2990    0.0000 C   0  0  0  0  0  0  0  0  0  0  0  0
  1  2  1  0
  2  3  1  0
  3  4  2  0
  4  5  1  0
  5  6  2  0
  6  7  1  0
  7  8  1  0
  8  9  1  0
  9 10  2  0
 10 11  1  0
 11 12  2  0
 12 13  1  0
 13 14  1  0
 14 15  1  0
 13 16  2  0
  8 17  1  0
 17 18  2  0
 18 19  1  0
 19 20  2  0
 20 21  1  0
 21 22  1  0
 22 23  1  0
 21 24  2  0
  7 25  2  0
 25  3  1  0
 16  9  1  0
 24 17  1  0
M  END
>  <linear_selectivity>  (418) 
32

>  <denticity>  (418) 
1

>  <ligand_class>  (418) 
phosphine

$$$$
P(2-MeO-Ph)3_130C_toluene
     RDKit          2D

 25 27  0  0  0  0  0  0  0  0999 V2000
    5.2500   -3.8971    0.0000 C   0  0  0  0  0  0  0  0  0  0  0  0
    4.5000   -2.5981    0.0000 O   0  0  0  0  0  0  0  0  0  0  0  0
    3.0000   -2.5981    0.0000 C   0  0  0  0  0  0  0  0  0  0  0  0
    2.2500   -3.8971    0.0000 C   0  0  0  0  0  0  0  0  0  0  0  0
    0.7500   -3.8971    0.0000 C   0  0  0  0  0  0  0  0  0  0  0  0
   -0.0000   -2.5981    0.0000 C   0  0  0  0  0  0  0  0  0  0  0  0
    0.7500   -1.2990    0.0000 C   0  0  0  0  0  0  0  0  0  0  0  0
    0.0000    0.0000    0.0000 P   0  0  0  0  0  0  0  0  0  0  0  0
    0.7500    1.2990    0.0000 C   0  0  0  0  0  0  0  0  0  0  0  0
    2.2500    1.2990    0.0000 C   0  0  0  0  0  0  0  0  0  0  0  0
    3.0000    2.5981    0.0000 C   0  0  0  0  0  0  0  0  0  0  0  0
    2.2500    3.8971    0.0000 C   0  0  0  0  0  0  0  0  0  0  0  0
    0.7500    3.8971    0.0000 C   0  0  0  0  0  0  0  0  0  0  0  0
    0.0000    5.1962    0.0000 O   0  0  0  0  0  0  0  0  0  0  0  0
    0.7500    6.4952    0.0000 C   0  0  0  0  0  0  0  0  0  0  0  0
    0.0000    2.5981    0.0000 C   0  0  0  0  0  0  0  0  0  0  0  0
   -1.5000    0.0000    0.0000 C   0  0  0  0  0  0  0  0  0  0  0  0
   -2.2500    1.2990    0.0000 C   0  0  0  0  0  0  0  0  0  0  0  0
   -3.7500    1.2990    0.0000 C   0  0  0  0  0  0  0  0  0  0  0  0
   -4.5000    0.0000    0.0000 C   0  0  0  0  0  0  0  0  0  0  0  0
   -3.7500   -1.2990    0.0000 C   0  0  0  0  0  0  0  0  0  0  0  0
   -4.5000   -2.5981    0.0000 O   0  0  0  0  0  0  0  0  0  0  0  0
   -6.0000   -2.5981    0.0000 C   0  0  0  0  0  0  0  0  0  0  0  0
   -2.2500   -1.2990    0.0000 C   0  0  0  0  0  0  0  0  0  0  0  0
    2.2500   -1.2990    0.0000 C   0  0  0  0  0  0  0  0  0  0  0  0
  1  2  1  0
  2  3  1  0
  3  4  2  0
  4  5  1  0
  5  6  2  0
  6  7  1  0
  7  8  1  0
  8  9  1  0
  9 10  2  0
 10 11  1  0
 11 12  2  0
 12 13  1  0
 13 14  1  0
 14 15  1  0
 13 16  2  0
  8 17  1  0
 17 18  2  0
 18 19  1  0
 19 20  2  0
 20 21  1  0
 21 22  1  0
 22 23  1  0
 21 24  2  0
  7 25  2  0
 25  3  1  0
 16  9  1  0
 24 17  1  0
M  END
>  <linear_selectivity>  (419) 
30

>  <denticity>  (419) 
1

>  <ligand_class>  (419) 
phosphine

$$$$
P(2-MeO-Ph)3_130C_THF
     RDKit          2D

 25 27  0  0  0  0  0  0  0  0999 V2000
    5.2500   -3.8971    0.0000 C   0  0  0  0  0  0  0  0  0  0  0  0
    4.5000   -2.5981    0.0000 O   0  0  0  0  0  0  0  0  0  0  0  0
    3.0000   -2.5981    0.0000 C   0  0  0  0  0  0  0  0  0  0  0  0
    2.2500   -3.8971    0.0000 C   0  0  0  0  0  0  0  0  0  0  0  0
    0.7500   -3.8971    0.0000 C   0  0  0  0  0  0  0  0  0  0  0  0
   -0.0000   -2.5981    0.0000 C   0  0  0  0  0  0  0  0  0  0  0  0
    0.7500   -1.2990    0.0000 C   0  0  0  0  0  0  0  0  0  0  0  0
    0.0000    0.0000    0.0000 P   0  0  0  0  0  0  0  0  0  0  0  0
    0.7500    1.2990    0.0000 C   0  0  0  0  0  0  0  0  0  0  0  0
    2.2500    1.2990    0.0000 C   0  0  0  0  0  0  0  0  0  0  0  0
    3.0000    2.5981    0.0000 C   0  0  0  0  0  0  0  0  0  0  0  0
    2.2500    3.8971    0.0000 C   0  0  0  0  0  0  0  0  0  0  0  0
    0.7500    3.8971    0.0000 C   0  0  0  0  0  0  0  0  0  0  0  0
    0.0000    5.1962    0.0000 O   0  0  0  0  0  0  0  0  0  0  0  0
    0.7500    6.4952    0.0000 C   0  0  0  0  0  0  0  0  0  0  0  0
    0.0000    2.5981    0.0000 C   0  0  0  0  0  0  0  0  0  0  0  0
   -1.5000    0.0000    0.0000 C   0  0  0  0  0  0  0  0  0  0  0  0
   -2.2500    1.2990    0.0000 C   0  0  0  0  0  0  0  0  0  0  0  0
   -3.7500    1.2990    0.0000 C   0  0  0  0  0  0  0  0  0  0  0  0
   -4.5000    0.0000    0.0000 C   0  0  0  0  0  0  0  0  0  0  0  0
   -3.7500   -1.2990    0.0000 C   0  0  0  0  0  0  0  0  0  0  0  0
   -4.5000   -2.5981    0.0000 O   0  0  0  0  0  0  0  0  0  0  0  0
   -6.0000   -2.5981    0.0000 C   0  0  0  0  0  0  0  0  0  0  0  0
   -2.2500   -1.2990    0.0000 C   0  0  0  0  0  0  0  0  0  0  0  0
    2.2500   -1.2990    0.0000 C   0  0  0  0  0  0  0  0  0  0  0  0
  1  2  1  0
  2  3  1  0
  3  4  2  0
  4  5  1  0
  5  6  2  0
  6  7  1  0
  7  8  1  0
  8  9  1  0
  9 10  2  0
 10 11  1  0
 11 12  2  0
 12 13  1  0
 13 14  1  0
 14 15  1  0
 13 16  2  0
  8 17  1  0
 17 18  2  0
 18 19  1  0
 19 20  2  0
 20 21  1  0
 21 22  1  0
 22 23  1  0
 21 24  2  0
  7 25  2  0
 25  3  1  0
 16  9  1  0
 24 17  1  0
M  END
>  <linear_selectivity>  (420) 
33

>  <denticity>  (420) 
1

>  <ligand_class>  (420) 
phosphine

$$$$
P(2-MeO-Ph)3_130C_hexane
     RDKit          2D

 25 27  0  0  0  0  0  0  0  0999 V2000
    5.2500   -3.8971    0.0000 C   0  0  0  0  0  0  0  0  0  0  0  0
    4.5000   -2.5981    0.0000 O   0  0  0  0  0  0  0  0  0  0  0  0
    3.0000   -2.5981    0.0000 C   0  0  0  0  0  0  0  0  0  0  0  0
    2.2500   -3.8971    0.0000 C   0  0  0  0  0  0  0  0  0  0  0  0
    0.7500   -3.8971    0.0000 C   0  0  0  0  0  0  0  0  0  0  0  0
   -0.0000   -2.5981    0.0000 C   0  0  0  0  0  0  0  0  0  0  0  0
    0.7500   -1.2990    0.0000 C   0  0  0  0  0  0  0  0  0  0  0  0
    0.0000    0.0000    0.0000 P   0  0  0  0  0  0  0  0  0  0  0  0
    0.7500    1.2990    0.0000 C   0  0  0  0  0  0  0  0  0  0  0  0
    2.2500    1.2990    0.0000 C   0  0  0  0  0  0  0  0  0  0  0  0
    3.0000    2.5981    0.0000 C   0  0  0  0  0  0  0  0  0  0  0  0
    2.2500    3.8971    0.0000 C   0  0  0  0  0  0  0  0  0  0  0  0
    0.7500    3.8971    0.0000 C   0  0  0  0  0  0  0  0  0  0  0  0
    0.0000    5.1962    0.0000 O   0  0  0  0  0  0  0  0  0  0  0  0
    0.7500    6.4952    0.0000 C   0  0  0  0  0  0  0  0  0  0  0  0
    0.0000    2.5981    0.0000 C   0  0  0  0  0  0  0  0  0  0  0  0
   -1.5000    0.0000    0.0000 C   0  0  0  0  0  0  0  0  0  0  0  0
   -2.2500    1.2990    0.0000 C   0  0  0  0  0  0  0  0  0  0  0  0
   -3.7500    1.2990    0.0000 C   0  0  0  0  0  0  0  0  0  0  0  0
   -4.5000    0.0000    0.0000 C   0  0  0  0  0  0  0  0  0  0  0  0
   -3.7500   -1.2990    0.0000 C   0  0  0  0  0  0  0  0  0  0  0  0
   -4.5000   -2.5981    0.0000 O   0  0  0  0  0  0  0  0  0  0  0  0
   -6.0000   -2.5981    0.0000 C   0  0  0  0  0  0  0  0  0  0  0  0
   -2.2500   -1.2990    0.0000 C   0  0  0  0  0  0  0  0  0  0  0  0
    2.2500   -1.2990    0.0000 C   0  0  0  0  0  0  0  0  0  0  0  0
  1  2  1  0
  2  3  1  0
  3  4  2  0
  4  5  1  0
  5  6  2  0
  6  7  1  0
  7  8  1  0
  8  9  1  0
  9 10  2  0
 10 11  1  0
 11 12  2  0
 12 13  1  0
 13 14  1  0
 14 15  1  0
 13 16  2  0
  8 17  1  0
 17 18  2  0
 18 19  1  0
 19 20  2  0
 20 21  1  0
 21 22  1  0
 22 23  1  0
 21 24  2  0
  7 25  2  0
 25  3  1  0
 16  9  1  0
 24 17  1  0
M  END
>  <linear_selectivity>  (421) 
29

>  <denticity>  (421) 
1

>  <ligand_class>  (421) 
phosphine

$$$$
P(2-MeO-Ph)3_130C_xylene
     RDKit          2D

 25 27  0  0  0  0  0  0  0  0999 V2000
    5.2500   -3.8971    0.0000 C   0  0  0  0  0  0  0  0  0  0  0  0
    4.5000   -2.5981    0.0000 O   0  0  0  0  0  0  0  0  0  0  0  0
    3.0000   -2.5981    0.0000 C   0  0  0  0  0  0  0  0  0  0  0  0
    2.2500   -3.8971    0.0000 C   0  0  0  0  0  0  0  0  0  0  0  0
    0.7500   -3.8971    0.0000 C   0  0  0  0  0  0  0  0  0  0  0  0
   -0.0000   -2.5981    0.0000 C   0  0  0  0  0  0  0  0  0  0  0  0
    0.7500   -1.2990    0.0000 C   0  0  0  0  0  0  0  0  0  0  0  0
    0.0000    0.0000    0.0000 P   0  0  0  0  0  0  0  0  0  0  0  0
    0.7500    1.2990    0.0000 C   0  0  0  0  0  0  0  0  0  0  0  0
    2.2500    1.2990    0.0000 C   0  0  0  0  0  0  0  0  0  0  0  0
    3.0000    2.5981    0.0000 C   0  0  0  0  0  0  0  0  0  0  0  0
    2.2500    3.8971    0.0000 C   0  0  0  0  0  0  0  0  0  0  0  0
    0.7500    3.8971    0.0000 C   0  0  0  0  0  0  0  0  0  0  0  0
    0.0000    5.1962    0.0000 O   0  0  0  0  0  0  0  0  0  0  0  0
    0.7500    6.4952    0.0000 C   0  0  0  0  0  0  0  0  0  0  0  0
    0.0000    2.5981    0.0000 C   0  0  0  0  0  0  0  0  0  0  0  0
   -1.5000    0.0000    0.0000 C   0  0  0  0  0  0  0  0  0  0  0  0
   -2.2500    1.2990    0.0000 C   0  0  0  0  0  0  0  0  0  0  0  0
   -3.7500    1.2990    0.0000 C   0  0  0  0  0  0  0  0  0  0  0  0
   -4.5000    0.0000    0.0000 C   0  0  0  0  0  0  0  0  0  0  0  0
   -3.7500   -1.2990    0.0000 C   0  0  0  0  0  0  0  0  0  0  0  0
   -4.5000   -2.5981    0.0000 O   0  0  0  0  0  0  0  0  0  0  0  0
   -6.0000   -2.5981    0.0000 C   0  0  0  0  0  0  0  0  0  0  0  0
   -2.2500   -1.2990    0.0000 C   0  0  0  0  0  0  0  0  0  0  0  0
    2.2500   -1.2990    0.0000 C   0  0  0  0  0  0  0  0  0  0  0  0
  1  2  1  0
  2  3  1  0
  3  4  2  0
  4  5  1  0
  5  6  2  0
  6  7  1  0
  7  8  1  0
  8  9  1  0
  9 10  2  0
 10 11  1  0
 11 12  2  0
 12 13  1  0
 13 14  1  0
 14 15  1  0
 13 16  2  0
  8 17  1  0
 17 18  2  0
 18 19  1  0
 19 20  2  0
 20 21  1  0
 21 22  1  0
 22 23  1  0
 21 24  2  0
  7 25  2  0
 25  3  1  0
 16  9  1  0
 24 17  1  0
M  END
>  <linear_selectivity>  (422) 
34

>  <denticity>  (422) 
1

>  <ligand_class>  (422) 
phosphine

$$$$
P(2-iPr-Ph)3
     RDKit          2D

 28 30  0  0  0  0  0  0  0  0999 V2000
    5.2500   -3.8971    0.0000 C   0  0  0  0  0  0  0  0  0  0  0  0
    4.5000   -2.5981    0.0000 C   0  0  0  0  0  0  0  0  0  0  0  0
    5.2500   -1.2990    0.0000 C   0  0  0  0  0  0  0  0  0  0  0  0
    3.0000   -2.5981    0.0000 C   0  0  0  0  0  0  0  0  0  0  0  0
    2.2500   -3.8971    0.0000 C   0  0  0  0  0  0  0  0  0  0  0  0
    0.7500   -3.8971    0.0000 C   0  0  0  0  0  0  0  0  0  0  0  0
   -0.0000   -2.5981    0.0000 C   0  0  0  0  0  0  0  0  0  0  0  0
    0.7500   -1.2990    0.0000 C   0  0  0  0  0  0  0  0  0  0  0  0
    0.0000    0.0000    0.0000 P   0  0  0  0  0  0  0  0  0  0  0  0
    0.7500    1.2990    0.0000 C   0  0  0  0  0  0  0  0  0  0  0  0
    2.2500    1.2990    0.0000 C   0  0  0  0  0  0  0  0  0  0  0  0
    3.0000    2.5981    0.0000 C   0  0  0  0  0  0  0  0  0  0  0  0
    2.2500    3.8971    0.0000 C   0  0  0  0  0  0  0  0  0  0  0  0
    0.7500    3.8971    0.0000 C   0  0  0  0  0  0  0  0  0  0  0  0
    0.0000    5.1962    0.0000 C   0  0  0  0  0  0  0  0  0  0  0  0
    0.7500    6.4952    0.0000 C   0  0  0  0  0  0  0  0  0  0  0  0
   -1.5000    5.1962    0.0000 C   0  0  0  0  0  0  0  0  0  0  0  0
    0.0000    2.5981    0.0000 C   0  0  0  0  0  0  0  0  0  0  0  0
   -1.5000    0.0000    0.0000 C   0  0  0  0  0  0  0  0  0  0  0  0
   -2.2500    1.2990    0.0000 C   0  0  0  0  0  0  0  0  0  0  0  0
   -3.7500    1.2990    0.0000 C   0  0  0  0  0  0  0  0  0  0  0  0
   -4.5000    0.0000    0.0000 C   0  0  0  0  0  0  0  0  0  0  0  0
   -3.7500   -1.2990    0.0000 C   0  0  0  0  0  0  0  0  0  0  0  0
   -4.5000   -2.5981    0.0000 C   0  0  0  0  0  0  0  0  0  0  0  0
   -6.0000   -2.5981    0.0000 C   0  0  0  0  0  0  0  0  0  0  0  0
   -3.7500   -3.8971    0.0000 C   0  0  0  0  0  0  0  0  0  0  0  0
   -2.2500   -1.2990    0.0000 C   0  0  0  0  0  0  0  0  0  0  0  0
    2.2500   -1.2990    0.0000 C   0  0  0  0  0  0  0  0  0  0  0  0
  1  2  1  0
  2  3  1  0
  2  4  1  0
  4  5  2  0
  5  6  1  0
  6  7  2  0
  7  8  1  0
  8  9  1  0
  9 10  1  0
 10 11  2  0
 11 12  1  0
 12 13  2  0
 13 14  1  0
 14 15  1  0
 15 16  1  0
 15 17  1  0
 14 18  2  0
  9 19  1  0
 19 20  2  0
 20 21  1  0
 21 22  2  0
 22 23  1  0
 23 24  1  0
 24 25  1  0
 24 26  1  0
 23 27  2  0
  8 28  2  0
 28  4  1  0
 18 10  1  0
 27 19  1  0
M  END
>  <linear_selectivity>  (423) 
48

>  <denticity>  (423) 
1

>  <ligand_class>  (423) 
phosphine

$$$$
P(2-iPr-Ph)3_70C_toluene
     RDKit          2D

 28 30  0  0  0  0  0  0  0  0999 V2000
    5.2500   -3.8971    0.0000 C   0  0  0  0  0  0  0  0  0  0  0  0
    4.5000   -2.5981    0.0000 C   0  0  0  0  0  0  0  0  0  0  0  0
    5.2500   -1.2990    0.0000 C   0  0  0  0  0  0  0  0  0  0  0  0
    3.0000   -2.5981    0.0000 C   0  0  0  0  0  0  0  0  0  0  0  0
    2.2500   -3.8971    0.0000 C   0  0  0  0  0  0  0  0  0  0  0  0
    0.7500   -3.8971    0.0000 C   0  0  0  0  0  0  0  0  0  0  0  0
   -0.0000   -2.5981    0.0000 C   0  0  0  0  0  0  0  0  0  0  0  0
    0.7500   -1.2990    0.0000 C   0  0  0  0  0  0  0  0  0  0  0  0
    0.0000    0.0000    0.0000 P   0  0  0  0  0  0  0  0  0  0  0  0
    0.7500    1.2990    0.0000 C   0  0  0  0  0  0  0  0  0  0  0  0
    2.2500    1.2990    0.0000 C   0  0  0  0  0  0  0  0  0  0  0  0
    3.0000    2.5981    0.0000 C   0  0  0  0  0  0  0  0  0  0  0  0
    2.2500    3.8971    0.0000 C   0  0  0  0  0  0  0  0  0  0  0  0
    0.7500    3.8971    0.0000 C   0  0  0  0  0  0  0  0  0  0  0  0
    0.0000    5.1962    0.0000 C   0  0  0  0  0  0  0  0  0  0  0  0
    0.7500    6.4952    0.0000 C   0  0  0  0  0  0  0  0  0  0  0  0
   -1.5000    5.1962    0.0000 C   0  0  0  0  0  0  0  0  0  0  0  0
    0.0000    2.5981    0.0000 C   0  0  0  0  0  0  0  0  0  0  0  0
   -1.5000    0.0000    0.0000 C   0  0  0  0  0  0  0  0  0  0  0  0
   -2.2500    1.2990    0.0000 C   0  0  0  0  0  0  0  0  0  0  0  0
   -3.7500    1.2990    0.0000 C   0  0  0  0  0  0  0  0  0  0  0  0
   -4.5000    0.0000    0.0000 C   0  0  0  0  0  0  0  0  0  0  0  0
   -3.7500   -1.2990    0.0000 C   0  0  0  0  0  0  0  0  0  0  0  0
   -4.5000   -2.5981    0.0000 C   0  0  0  0  0  0  0  0  0  0  0  0
   -6.0000   -2.5981    0.0000 C   0  0  0  0  0  0  0  0  0  0  0  0
   -3.7500   -3.8971    0.0000 C   0  0  0  0  0  0  0  0  0  0  0  0
   -2.2500   -1.2990    0.0000 C   0  0  0  0  0  0  0  0  0  0  0  0
    2.2500   -1.2990    0.0000 C   0  0  0  0  0  0  0  0  0  0  0  0
  1  2  1  0
  2  3  1  0
  2  4  1  0
  4  5  2  0
  5  6  1  0
  6  7  2  0
  7  8  1  0
  8  9  1  0
  9 10  1  0
 10 11  2  0
 11 12  1  0
 12 13  2  0
 13 14  1  0
 14 15  1  0
 15 16  1  0
 15 17  1  0
 14 18  2  0
  9 19  1  0
 19 20  2  0
 20 21  1  0
 21 22  2  0
 22 23  1  0
 23 24  1  0
 24 25  1  0
 24 26  1  0
 23 27  2  0
  8 28  2  0
 28  4  1  0
 18 10  1  0
 27 19  1  0
M  END
>  <linear_selectivity>  (424) 
53

>  <denticity>  (424) 
1

>  <ligand_class>  (424) 
phosphine

$$$$
P(2-iPr-Ph)3_70C_THF
     RDKit          2D

 28 30  0  0  0  0  0  0  0  0999 V2000
    5.2500   -3.8971    0.0000 C   0  0  0  0  0  0  0  0  0  0  0  0
    4.5000   -2.5981    0.0000 C   0  0  0  0  0  0  0  0  0  0  0  0
    5.2500   -1.2990    0.0000 C   0  0  0  0  0  0  0  0  0  0  0  0
    3.0000   -2.5981    0.0000 C   0  0  0  0  0  0  0  0  0  0  0  0
    2.2500   -3.8971    0.0000 C   0  0  0  0  0  0  0  0  0  0  0  0
    0.7500   -3.8971    0.0000 C   0  0  0  0  0  0  0  0  0  0  0  0
   -0.0000   -2.5981    0.0000 C   0  0  0  0  0  0  0  0  0  0  0  0
    0.7500   -1.2990    0.0000 C   0  0  0  0  0  0  0  0  0  0  0  0
    0.0000    0.0000    0.0000 P   0  0  0  0  0  0  0  0  0  0  0  0
    0.7500    1.2990    0.0000 C   0  0  0  0  0  0  0  0  0  0  0  0
    2.2500    1.2990    0.0000 C   0  0  0  0  0  0  0  0  0  0  0  0
    3.0000    2.5981    0.0000 C   0  0  0  0  0  0  0  0  0  0  0  0
    2.2500    3.8971    0.0000 C   0  0  0  0  0  0  0  0  0  0  0  0
    0.7500    3.8971    0.0000 C   0  0  0  0  0  0  0  0  0  0  0  0
    0.0000    5.1962    0.0000 C   0  0  0  0  0  0  0  0  0  0  0  0
    0.7500    6.4952    0.0000 C   0  0  0  0  0  0  0  0  0  0  0  0
   -1.5000    5.1962    0.0000 C   0  0  0  0  0  0  0  0  0  0  0  0
    0.0000    2.5981    0.0000 C   0  0  0  0  0  0  0  0  0  0  0  0
   -1.5000    0.0000    0.0000 C   0  0  0  0  0  0  0  0  0  0  0  0
   -2.2500    1.2990    0.0000 C   0  0  0  0  0  0  0  0  0  0  0  0
   -3.7500    1.2990    0.0000 C   0  0  0  0  0  0  0  0  0  0  0  0
   -4.5000    0.0000    0.0000 C   0  0  0  0  0  0  0  0  0  0  0  0
   -3.7500   -1.2990    0.0000 C   0  0  0  0  0  0  0  0  0  0  0  0
   -4.5000   -2.5981    0.0000 C   0  0  0  0  0  0  0  0  0  0  0  0
   -6.0000   -2.5981    0.0000 C   0  0  0  0  0  0  0  0  0  0  0  0
   -3.7500   -3.8971    0.0000 C   0  0  0  0  0  0  0  0  0  0  0  0
   -2.2500   -1.2990    0.0000 C   0  0  0  0  0  0  0  0  0  0  0  0
    2.2500   -1.2990    0.0000 C   0  0  0  0  0  0  0  0  0  0  0  0
  1  2  1  0
  2  3  1  0
  2  4  1  0
  4  5  2  0
  5  6  1  0
  6  7  2  0
  7  8  1  0
  8  9  1  0
  9 10  1  0
 10 11  2  0
 11 12  1  0
 12 13  2  0
 13 14  1  0
 14 15  1  0
 15 16  1  0
 15 17  1  0
 14 18  2  0
  9 19  1  0
 19 20  2  0
 20 21  1  0
 21 22  2  0
 22 23  1  0
 23 24  1  0
 24 25  1  0
 24 26  1  0
 23 27  2  0
  8 28  2  0
 28  4  1  0
 18 10  1  0
 27 19  1  0
M  END
>  <linear_selectivity>  (425) 
48

>  <denticity>  (425) 
1

>  <ligand_class>  (425) 
phosphine

$$$$
P(2-iPr-Ph)3_70C_dioxane
     RDKit          2D

 28 30  0  0  0  0  0  0  0  0999 V2000
    5.2500   -3.8971    0.0000 C   0  0  0  0  0  0  0  0  0  0  0  0
    4.5000   -2.5981    0.0000 C   0  0  0  0  0  0  0  0  0  0  0  0
    5.2500   -1.2990    0.0000 C   0  0  0  0  0  0  0  0  0  0  0  0
    3.0000   -2.5981    0.0000 C   0  0  0  0  0  0  0  0  0  0  0  0
    2.2500   -3.8971    0.0000 C   0  0  0  0  0  0  0  0  0  0  0  0
    0.7500   -3.8971    0.0000 C   0  0  0  0  0  0  0  0  0  0  0  0
   -0.0000   -2.5981    0.0000 C   0  0  0  0  0  0  0  0  0  0  0  0
    0.7500   -1.2990    0.0000 C   0  0  0  0  0  0  0  0  0  0  0  0
    0.0000    0.0000    0.0000 P   0  0  0  0  0  0  0  0  0  0  0  0
    0.7500    1.2990    0.0000 C   0  0  0  0  0  0  0  0  0  0  0  0
    2.2500    1.2990    0.0000 C   0  0  0  0  0  0  0  0  0  0  0  0
    3.0000    2.5981    0.0000 C   0  0  0  0  0  0  0  0  0  0  0  0
    2.2500    3.8971    0.0000 C   0  0  0  0  0  0  0  0  0  0  0  0
    0.7500    3.8971    0.0000 C   0  0  0  0  0  0  0  0  0  0  0  0
    0.0000    5.1962    0.0000 C   0  0  0  0  0  0  0  0  0  0  0  0
    0.7500    6.4952    0.0000 C   0  0  0  0  0  0  0  0  0  0  0  0
   -1.5000    5.1962    0.0000 C   0  0  0  0  0  0  0  0  0  0  0  0
    0.0000    2.5981    0.0000 C   0  0  0  0  0  0  0  0  0  0  0  0
   -1.5000    0.0000    0.0000 C   0  0  0  0  0  0  0  0  0  0  0  0
   -2.2500    1.2990    0.0000 C   0  0  0  0  0  0  0  0  0  0  0  0
   -3.7500    1.2990    0.0000 C   0  0  0  0  0  0  0  0  0  0  0  0
   -4.5000    0.0000    0.0000 C   0  0  0  0  0  0  0  0  0  0  0  0
   -3.7500   -1.2990    0.0000 C   0  0  0  0  0  0  0  0  0  0  0  0
   -4.5000   -2.5981    0.0000 C   0  0  0  0  0  0  0  0  0  0  0  0
   -6.0000   -2.5981    0.0000 C   0  0  0  0  0  0  0  0  0  0  0  0
   -3.7500   -3.8971    0.0000 C   0  0  0  0  0  0  0  0  0  0  0  0
   -2.2500   -1.2990    0.0000 C   0  0  0  0  0  0  0  0  0  0  0  0
    2.2500   -1.2990    0.0000 C   0  0  0  0  0  0  0  0  0  0  0  0
  1  2  1  0
  2  3  1  0
  2  4  1  0
  4  5  2  0
  5  6  1  0
  6  7  2  0
  7  8  1  0
  8  9  1  0
  9 10  1  0
 10 11  2  0
 11 12  1  0
 12 13  2  0
 13 14  1  0
 14 15  1  0
 15 16  1  0
 15 17  1  0
 14 18  2  0
  9 19  1  0
 19 20  2  0
 20 21  1  0
 21 22  2  0
 22 23  1  0
 23 24  1  0
 24 25  1  0
 24 26  1  0
 23 27  2  0
  8 28  2  0
 28  4  1  0
 18 10  1  0
 27 19  1  0
M  END
>  <linear_selectivity>  (426) 
54

>  <denticity>  (426) 
1

>  <ligand_class>  (426) 
phosphine

$$$$
P(2-iPr-Ph)3_70C_xylene
     RDKit          2D

 28 30  0  0  0  0  0  0  0  0999 V2000
    5.2500   -3.8971    0.0000 C   0  0  0  0  0  0  0  0  0  0  0  0
    4.5000   -2.5981    0.0000 C   0  0  0  0  0  0  0  0  0  0  0  0
    5.2500   -1.2990    0.0000 C   0  0  0  0  0  0  0  0  0  0  0  0
    3.0000   -2.5981    0.0000 C   0  0  0  0  0  0  0  0  0  0  0  0
    2.2500   -3.8971    0.0000 C   0  0  0  0  0  0  0  0  0  0  0  0
    0.7500   -3.8971    0.0000 C   0  0  0  0  0  0  0  0  0  0  0  0
   -0.0000   -2.5981    0.0000 C   0  0  0  0  0  0  0  0  0  0  0  0
    0.7500   -1.2990    0.0000 C   0  0  0  0  0  0  0  0  0  0  0  0
    0.0000    0.0000    0.0000 P   0  0  0  0  0  0  0  0  0  0  0  0
    0.7500    1.2990    0.0000 C   0  0  0  0  0  0  0  0  0  0  0  0
    2.2500    1.2990    0.0000 C   0  0  0  0  0  0  0  0  0  0  0  0
    3.0000    2.5981    0.0000 C   0  0  0  0  0  0  0  0  0  0  0  0
    2.2500    3.8971    0.0000 C   0  0  0  0  0  0  0  0  0  0  0  0
    0.7500    3.8971    0.0000 C   0  0  0  0  0  0  0  0  0  0  0  0
    0.0000    5.1962    0.0000 C   0  0  0  0  0  0  0  0  0  0  0  0
    0.7500    6.4952    0.0000 C   0  0  0  0  0  0  0  0  0  0  0  0
   -1.5000    5.1962    0.0000 C   0  0  0  0  0  0  0  0  0  0  0  0
    0.0000    2.5981    0.0000 C   0  0  0  0  0  0  0  0  0  0  0  0
   -1.5000    0.0000    0.0000 C   0  0  0  0  0  0  0  0  0  0  0  0
   -2.2500    1.2990    0.0000 C   0  0  0  0  0  0  0  0  0  0  0  0
   -3.7500    1.2990    0.0000 C   0  0  0  0  0  0  0  0  0  0  0  0
   -4.5000    0.0000    0.0000 C   0  0  0  0  0  0  0  0  0  0  0  0
   -3.7500   -1.2990    0.0000 C   0  0  0  0  0  0  0  0  0  0  0  0
   -4.5000   -2.5981    0.0000 C   0  0  0  0  0  0  0  0  0  0  0  0
   -6.0000   -2.5981    0.0000 C   0  0  0  0  0  0  0  0  0  0  0  0
   -3.7500   -3.8971    0.0000 C   0  0  0  0  0  0  0  0  0  0  0  0
   -2.2500   -1.2990    0.0000 C   0  0  0  0  0  0  0  0  0  0  0  0
    2.2500   -1.2990    0.0000 C   0  0  0  0  0  0  0  0  0  0  0  0
  1  2  1  0
  2  3  1  0
  2  4  1  0
  4  5  2  0
  5  6  1  0
  6  7  2  0
  7  8  1  0
  8  9  1  0
  9 10  1  0
 10 11  2  0
 11 12  1  0
 12 13  2  0
 13 14  1  0
 14 15  1  0
 15 16  1  0
 15 17  1  0
 14 18  2  0
  9 19  1  0
 19 20  2  0
 20 21  1  0
 21 22  2  0
 22 23  1  0
 23 24  1  0
 24 25  1  0
 24 26  1  0
 23 27  2  0
  8 28  2  0
 28  4  1  0
 18 10  1  0
 27 19  1  0
M  END
>  <linear_selectivity>  (427) 
54

>  <denticity>  (427) 
1

>  <ligand_class>  (427) 
phosphine

$$$$
P(2-iPr-Ph)3_80C_toluene
     RDKit          2D

 28 30  0  0  0  0  0  0  0  0999 V2000
    5.2500   -3.8971    0.0000 C   0  0  0  0  0  0  0  0  0  0  0  0
    4.5000   -2.5981    0.0000 C   0  0  0  0  0  0  0  0  0  0  0  0
    5.2500   -1.2990    0.0000 C   0  0  0  0  0  0  0  0  0  0  0  0
    3.0000   -2.5981    0.0000 C   0  0  0  0  0  0  0  0  0  0  0  0
    2.2500   -3.8971    0.0000 C   0  0  0  0  0  0  0  0  0  0  0  0
    0.7500   -3.8971    0.0000 C   0  0  0  0  0  0  0  0  0  0  0  0
   -0.0000   -2.5981    0.0000 C   0  0  0  0  0  0  0  0  0  0  0  0
    0.7500   -1.2990    0.0000 C   0  0  0  0  0  0  0  0  0  0  0  0
    0.0000    0.0000    0.0000 P   0  0  0  0  0  0  0  0  0  0  0  0
    0.7500    1.2990    0.0000 C   0  0  0  0  0  0  0  0  0  0  0  0
    2.2500    1.2990    0.0000 C   0  0  0  0  0  0  0  0  0  0  0  0
    3.0000    2.5981    0.0000 C   0  0  0  0  0  0  0  0  0  0  0  0
    2.2500    3.8971    0.0000 C   0  0  0  0  0  0  0  0  0  0  0  0
    0.7500    3.8971    0.0000 C   0  0  0  0  0  0  0  0  0  0  0  0
    0.0000    5.1962    0.0000 C   0  0  0  0  0  0  0  0  0  0  0  0
    0.7500    6.4952    0.0000 C   0  0  0  0  0  0  0  0  0  0  0  0
   -1.5000    5.1962    0.0000 C   0  0  0  0  0  0  0  0  0  0  0  0
    0.0000    2.5981    0.0000 C   0  0  0  0  0  0  0  0  0  0  0  0
   -1.5000    0.0000    0.0000 C   0  0  0  0  0  0  0  0  0  0  0  0
   -2.2500    1.2990    0.0000 C   0  0  0  0  0  0  0  0  0  0  0  0
   -3.7500    1.2990    0.0000 C   0  0  0  0  0  0  0  0  0  0  0  0
   -4.5000    0.0000    0.0000 C   0  0  0  0  0  0  0  0  0  0  0  0
   -3.7500   -1.2990    0.0000 C   0  0  0  0  0  0  0  0  0  0  0  0
   -4.5000   -2.5981    0.0000 C   0  0  0  0  0  0  0  0  0  0  0  0
   -6.0000   -2.5981    0.0000 C   0  0  0  0  0  0  0  0  0  0  0  0
   -3.7500   -3.8971    0.0000 C   0  0  0  0  0  0  0  0  0  0  0  0
   -2.2500   -1.2990    0.0000 C   0  0  0  0  0  0  0  0  0  0  0  0
    2.2500   -1.2990    0.0000 C   0  0  0  0  0  0  0  0  0  0  0  0
  1  2  1  0
  2  3  1  0
  2  4  1  0
  4  5  2  0
  5  6  1  0
  6  7  2  0
  7  8  1  0
  8  9  1  0
  9 10  1  0
 10 11  2  0
 11 12  1  0
 12 13  2  0
 13 14  1  0
 14 15  1  0
 15 16  1  0
 15 17  1  0
 14 18  2  0
  9 19  1  0
 19 20  2  0
 20 21  1  0
 21 22  2  0
 22 23  1  0
 23 24  1  0
 24 25  1  0
 24 26  1  0
 23 27  2  0
  8 28  2  0
 28  4  1  0
 18 10  1  0
 27 19  1  0
M  END
>  <linear_selectivity>  (428) 
56

>  <denticity>  (428) 
1

>  <ligand_class>  (428) 
phosphine

$$$$
P(2-iPr-Ph)3_80C_THF
     RDKit          2D

 28 30  0  0  0  0  0  0  0  0999 V2000
    5.2500   -3.8971    0.0000 C   0  0  0  0  0  0  0  0  0  0  0  0
    4.5000   -2.5981    0.0000 C   0  0  0  0  0  0  0  0  0  0  0  0
    5.2500   -1.2990    0.0000 C   0  0  0  0  0  0  0  0  0  0  0  0
    3.0000   -2.5981    0.0000 C   0  0  0  0  0  0  0  0  0  0  0  0
    2.2500   -3.8971    0.0000 C   0  0  0  0  0  0  0  0  0  0  0  0
    0.7500   -3.8971    0.0000 C   0  0  0  0  0  0  0  0  0  0  0  0
   -0.0000   -2.5981    0.0000 C   0  0  0  0  0  0  0  0  0  0  0  0
    0.7500   -1.2990    0.0000 C   0  0  0  0  0  0  0  0  0  0  0  0
    0.0000    0.0000    0.0000 P   0  0  0  0  0  0  0  0  0  0  0  0
    0.7500    1.2990    0.0000 C   0  0  0  0  0  0  0  0  0  0  0  0
    2.2500    1.2990    0.0000 C   0  0  0  0  0  0  0  0  0  0  0  0
    3.0000    2.5981    0.0000 C   0  0  0  0  0  0  0  0  0  0  0  0
    2.2500    3.8971    0.0000 C   0  0  0  0  0  0  0  0  0  0  0  0
    0.7500    3.8971    0.0000 C   0  0  0  0  0  0  0  0  0  0  0  0
    0.0000    5.1962    0.0000 C   0  0  0  0  0  0  0  0  0  0  0  0
    0.7500    6.4952    0.0000 C   0  0  0  0  0  0  0  0  0  0  0  0
   -1.5000    5.1962    0.0000 C   0  0  0  0  0  0  0  0  0  0  0  0
    0.0000    2.5981    0.0000 C   0  0  0  0  0  0  0  0  0  0  0  0
   -1.5000    0.0000    0.0000 C   0  0  0  0  0  0  0  0  0  0  0  0
   -2.2500    1.2990    0.0000 C   0  0  0  0  0  0  0  0  0  0  0  0
   -3.7500    1.2990    0.0000 C   0  0  0  0  0  0  0  0  0  0  0  0
   -4.5000    0.0000    0.0000 C   0  0  0  0  0  0  0  0  0  0  0  0
   -3.7500   -1.2990    0.0000 C   0  0  0  0  0  0  0  0  0  0  0  0
   -4.5000   -2.5981    0.0000 C   0  0  0  0  0  0  0  0  0  0  0  0
   -6.0000   -2.5981    0.0000 C   0  0  0  0  0  0  0  0  0  0  0  0
   -3.7500   -3.8971    0.0000 C   0  0  0  0  0  0  0  0  0  0  0  0
   -2.2500   -1.2990    0.0000 C   0  0  0  0  0  0  0  0  0  0  0  0
    2.2500   -1.2990    0.0000 C   0  0  0  0  0  0  0  0  0  0  0  0
  1  2  1  0
  2  3  1  0
  2  4  1  0
  4  5  2  0
  5  6  1  0
  6  7  2  0
  7  8  1  0
  8  9  1  0
  9 10  1  0
 10 11  2  0
 11 12  1  0
 12 13  2  0
 13 14  1  0
 14 15  1  0
 15 16  1  0
 15 17  1  0
 14 18  2  0
  9 19  1  0
 19 20  2  0
 20 21  1  0
 21 22  2  0
 22 23  1  0
 23 24  1  0
 24 25  1  0
 24 26  1  0
 23 27  2  0
  8 28  2  0
 28  4  1  0
 18 10  1  0
 27 19  1  0
M  END
>  <linear_selectivity>  (429) 
51

>  <denticity>  (429) 
1

>  <ligand_class>  (429) 
phosphine

$$$$
P(2-iPr-Ph)3_80C_dioxane
     RDKit          2D

 28 30  0  0  0  0  0  0  0  0999 V2000
    5.2500   -3.8971    0.0000 C   0  0  0  0  0  0  0  0  0  0  0  0
    4.5000   -2.5981    0.0000 C   0  0  0  0  0  0  0  0  0  0  0  0
    5.2500   -1.2990    0.0000 C   0  0  0  0  0  0  0  0  0  0  0  0
    3.0000   -2.5981    0.0000 C   0  0  0  0  0  0  0  0  0  0  0  0
    2.2500   -3.8971    0.0000 C   0  0  0  0  0  0  0  0  0  0  0  0
    0.7500   -3.8971    0.0000 C   0  0  0  0  0  0  0  0  0  0  0  0
   -0.0000   -2.5981    0.0000 C   0  0  0  0  0  0  0  0  0  0  0  0
    0.7500   -1.2990    0.0000 C   0  0  0  0  0  0  0  0  0  0  0  0
    0.0000    0.0000    0.0000 P   0  0  0  0  0  0  0  0  0  0  0  0
    0.7500    1.2990    0.0000 C   0  0  0  0  0  0  0  0  0  0  0  0
    2.2500    1.2990    0.0000 C   0  0  0  0  0  0  0  0  0  0  0  0
    3.0000    2.5981    0.0000 C   0  0  0  0  0  0  0  0  0  0  0  0
    2.2500    3.8971    0.0000 C   0  0  0  0  0  0  0  0  0  0  0  0
    0.7500    3.8971    0.0000 C   0  0  0  0  0  0  0  0  0  0  0  0
    0.0000    5.1962    0.0000 C   0  0  0  0  0  0  0  0  0  0  0  0
    0.7500    6.4952    0.0000 C   0  0  0  0  0  0  0  0  0  0  0  0
   -1.5000    5.1962    0.0000 C   0  0  0  0  0  0  0  0  0  0  0  0
    0.0000    2.5981    0.0000 C   0  0  0  0  0  0  0  0  0  0  0  0
   -1.5000    0.0000    0.0000 C   0  0  0  0  0  0  0  0  0  0  0  0
   -2.2500    1.2990    0.0000 C   0  0  0  0  0  0  0  0  0  0  0  0
   -3.7500    1.2990    0.0000 C   0  0  0  0  0  0  0  0  0  0  0  0
   -4.5000    0.0000    0.0000 C   0  0  0  0  0  0  0  0  0  0  0  0
   -3.7500   -1.2990    0.0000 C   0  0  0  0  0  0  0  0  0  0  0  0
   -4.5000   -2.5981    0.0000 C   0  0  0  0  0  0  0  0  0  0  0  0
   -6.0000   -2.5981    0.0000 C   0  0  0  0  0  0  0  0  0  0  0  0
   -3.7500   -3.8971    0.0000 C   0  0  0  0  0  0  0  0  0  0  0  0
   -2.2500   -1.2990    0.0000 C   0  0  0  0  0  0  0  0  0  0  0  0
    2.2500   -1.2990    0.0000 C   0  0  0  0  0  0  0  0  0  0  0  0
  1  2  1  0
  2  3  1  0
  2  4  1  0
  4  5  2  0
  5  6  1  0
  6  7  2  0
  7  8  1  0
  8  9  1  0
  9 10  1  0
 10 11  2  0
 11 12  1  0
 12 13  2  0
 13 14  1  0
 14 15  1  0
 15 16  1  0
 15 17  1  0
 14 18  2  0
  9 19  1  0
 19 20  2  0
 20 21  1  0
 21 22  2  0
 22 23  1  0
 23 24  1  0
 24 25  1  0
 24 26  1  0
 23 27  2  0
  8 28  2  0
 28  4  1  0
 18 10  1  0
 27 19  1  0
M  END
>  <linear_selectivity>  (430) 
49

>  <denticity>  (430) 
1

>  <ligand_class>  (430) 
phosphine

$$$$
P(2-iPr-Ph)3_80C_hexane
     RDKit          2D

 28 30  0  0  0  0  0  0  0  0999 V2000
    5.2500   -3.8971    0.0000 C   0  0  0  0  0  0  0  0  0  0  0  0
    4.5000   -2.5981    0.0000 C   0  0  0  0  0  0  0  0  0  0  0  0
    5.2500   -1.2990    0.0000 C   0  0  0  0  0  0  0  0  0  0  0  0
    3.0000   -2.5981    0.0000 C   0  0  0  0  0  0  0  0  0  0  0  0
    2.2500   -3.8971    0.0000 C   0  0  0  0  0  0  0  0  0  0  0  0
    0.7500   -3.8971    0.0000 C   0  0  0  0  0  0  0  0  0  0  0  0
   -0.0000   -2.5981    0.0000 C   0  0  0  0  0  0  0  0  0  0  0  0
    0.7500   -1.2990    0.0000 C   0  0  0  0  0  0  0  0  0  0  0  0
    0.0000    0.0000    0.0000 P   0  0  0  0  0  0  0  0  0  0  0  0
    0.7500    1.2990    0.0000 C   0  0  0  0  0  0  0  0  0  0  0  0
    2.2500    1.2990    0.0000 C   0  0  0  0  0  0  0  0  0  0  0  0
    3.0000    2.5981    0.0000 C   0  0  0  0  0  0  0  0  0  0  0  0
    2.2500    3.8971    0.0000 C   0  0  0  0  0  0  0  0  0  0  0  0
    0.7500    3.8971    0.0000 C   0  0  0  0  0  0  0  0  0  0  0  0
    0.0000    5.1962    0.0000 C   0  0  0  0  0  0  0  0  0  0  0  0
    0.7500    6.4952    0.0000 C   0  0  0  0  0  0  0  0  0  0  0  0
   -1.5000    5.1962    0.0000 C   0  0  0  0  0  0  0  0  0  0  0  0
    0.0000    2.5981    0.0000 C   0  0  0  0  0  0  0  0  0  0  0  0
   -1.5000    0.0000    0.0000 C   0  0  0  0  0  0  0  0  0  0  0  0
   -2.2500    1.2990    0.0000 C   0  0  0  0  0  0  0  0  0  0  0  0
   -3.7500    1.2990    0.0000 C   0  0  0  0  0  0  0  0  0  0  0  0
   -4.5000    0.0000    0.0000 C   0  0  0  0  0  0  0  0  0  0  0  0
   -3.7500   -1.2990    0.0000 C   0  0  0  0  0  0  0  0  0  0  0  0
   -4.5000   -2.5981    0.0000 C   0  0  0  0  0  0  0  0  0  0  0  0
   -6.0000   -2.5981    0.0000 C   0  0  0  0  0  0  0  0  0  0  0  0
   -3.7500   -3.8971    0.0000 C   0  0  0  0  0  0  0  0  0  0  0  0
   -2.2500   -1.2990    0.0000 C   0  0  0  0  0  0  0  0  0  0  0  0
    2.2500   -1.2990    0.0000 C   0  0  0  0  0  0  0  0  0  0  0  0
  1  2  1  0
  2  3  1  0
  2  4  1  0
  4  5  2  0
  5  6  1  0
  6  7  2  0
  7  8  1  0
  8  9  1  0
  9 10  1  0
 10 11  2  0
 11 12  1  0
 12 13  2  0
 13 14  1  0
 14 15  1  0
 15 16  1  0
 15 17  1  0
 14 18  2  0
  9 19  1  0
 19 20  2  0
 20 21  1  0
 21 22  2  0
 22 23  1  0
 23 24  1  0
 24 25  1  0
 24 26  1  0
 23 27  2  0
  8 28  2  0
 28  4  1  0
 18 10  1  0
 27 19  1  0
M  END
>  <linear_selectivity>  (431) 
51

>  <denticity>  (431) 
1

>  <ligand_class>  (431) 
phosphine

$$$$
P(2-iPr-Ph)3_80C_benzene
     RDKit          2D

 28 30  0  0  0  0  0  0  0  0999 V2000
    5.2500   -3.8971    0.0000 C   0  0  0  0  0  0  0  0  0  0  0  0
    4.5000   -2.5981    0.0000 C   0  0  0  0  0  0  0  0  0  0  0  0
    5.2500   -1.2990    0.0000 C   0  0  0  0  0  0  0  0  0  0  0  0
    3.0000   -2.5981    0.0000 C   0  0  0  0  0  0  0  0  0  0  0  0
    2.2500   -3.8971    0.0000 C   0  0  0  0  0  0  0  0  0  0  0  0
    0.7500   -3.8971    0.0000 C   0  0  0  0  0  0  0  0  0  0  0  0
   -0.0000   -2.5981    0.0000 C   0  0  0  0  0  0  0  0  0  0  0  0
    0.7500   -1.2990    0.0000 C   0  0  0  0  0  0  0  0  0  0  0  0
    0.0000    0.0000    0.0000 P   0  0  0  0  0  0  0  0  0  0  0  0
    0.7500    1.2990    0.0000 C   0  0  0  0  0  0  0  0  0  0  0  0
    2.2500    1.2990    0.0000 C   0  0  0  0  0  0  0  0  0  0  0  0
    3.0000    2.5981    0.0000 C   0  0  0  0  0  0  0  0  0  0  0  0
    2.2500    3.8971    0.0000 C   0  0  0  0  0  0  0  0  0  0  0  0
    0.7500    3.8971    0.0000 C   0  0  0  0  0  0  0  0  0  0  0  0
    0.0000    5.1962    0.0000 C   0  0  0  0  0  0  0  0  0  0  0  0
    0.7500    6.4952    0.0000 C   0  0  0  0  0  0  0  0  0  0  0  0
   -1.5000    5.1962    0.0000 C   0  0  0  0  0  0  0  0  0  0  0  0
    0.0000    2.5981    0.0000 C   0  0  0  0  0  0  0  0  0  0  0  0
   -1.5000    0.0000    0.0000 C   0  0  0  0  0  0  0  0  0  0  0  0
   -2.2500    1.2990    0.0000 C   0  0  0  0  0  0  0  0  0  0  0  0
   -3.7500    1.2990    0.0000 C   0  0  0  0  0  0  0  0  0  0  0  0
   -4.5000    0.0000    0.0000 C   0  0  0  0  0  0  0  0  0  0  0  0
   -3.7500   -1.2990    0.0000 C   0  0  0  0  0  0  0  0  0  0  0  0
   -4.5000   -2.5981    0.0000 C   0  0  0  0  0  0  0  0  0  0  0  0
   -6.0000   -2.5981    0.0000 C   0  0  0  0  0  0  0  0  0  0  0  0
   -3.7500   -3.8971    0.0000 C   0  0  0  0  0  0  0  0  0  0  0  0
   -2.2500   -1.2990    0.0000 C   0  0  0  0  0  0  0  0  0  0  0  0
    2.2500   -1.2990    0.0000 C   0  0  0  0  0  0  0  0  0  0  0  0
  1  2  1  0
  2  3  1  0
  2  4  1  0
  4  5  2  0
  5  6  1  0
  6  7  2  0
  7  8  1  0
  8  9  1  0
  9 10  1  0
 10 11  2  0
 11 12  1  0
 12 13  2  0
 13 14  1  0
 14 15  1  0
 15 16  1  0
 15 17  1  0
 14 18  2  0
  9 19  1  0
 19 20  2  0
 20 21  1  0
 21 22  2  0
 22 23  1  0
 23 24  1  0
 24 25  1  0
 24 26  1  0
 23 27  2  0
  8 28  2  0
 28  4  1  0
 18 10  1  0
 27 19  1  0
M  END
>  <linear_selectivity>  (432) 
53

>  <denticity>  (432) 
1

>  <ligand_class>  (432) 
phosphine

$$$$
P(2-iPr-Ph)3_80C_xylene
     RDKit          2D

 28 30  0  0  0  0  0  0  0  0999 V2000
    5.2500   -3.8971    0.0000 C   0  0  0  0  0  0  0  0  0  0  0  0
    4.5000   -2.5981    0.0000 C   0  0  0  0  0  0  0  0  0  0  0  0
    5.2500   -1.2990    0.0000 C   0  0  0  0  0  0  0  0  0  0  0  0
    3.0000   -2.5981    0.0000 C   0  0  0  0  0  0  0  0  0  0  0  0
    2.2500   -3.8971    0.0000 C   0  0  0  0  0  0  0  0  0  0  0  0
    0.7500   -3.8971    0.0000 C   0  0  0  0  0  0  0  0  0  0  0  0
   -0.0000   -2.5981    0.0000 C   0  0  0  0  0  0  0  0  0  0  0  0
    0.7500   -1.2990    0.0000 C   0  0  0  0  0  0  0  0  0  0  0  0
    0.0000    0.0000    0.0000 P   0  0  0  0  0  0  0  0  0  0  0  0
    0.7500    1.2990    0.0000 C   0  0  0  0  0  0  0  0  0  0  0  0
    2.2500    1.2990    0.0000 C   0  0  0  0  0  0  0  0  0  0  0  0
    3.0000    2.5981    0.0000 C   0  0  0  0  0  0  0  0  0  0  0  0
    2.2500    3.8971    0.0000 C   0  0  0  0  0  0  0  0  0  0  0  0
    0.7500    3.8971    0.0000 C   0  0  0  0  0  0  0  0  0  0  0  0
    0.0000    5.1962    0.0000 C   0  0  0  0  0  0  0  0  0  0  0  0
    0.7500    6.4952    0.0000 C   0  0  0  0  0  0  0  0  0  0  0  0
   -1.5000    5.1962    0.0000 C   0  0  0  0  0  0  0  0  0  0  0  0
    0.0000    2.5981    0.0000 C   0  0  0  0  0  0  0  0  0  0  0  0
   -1.5000    0.0000    0.0000 C   0  0  0  0  0  0  0  0  0  0  0  0
   -2.2500    1.2990    0.0000 C   0  0  0  0  0  0  0  0  0  0  0  0
   -3.7500    1.2990    0.0000 C   0  0  0  0  0  0  0  0  0  0  0  0
   -4.5000    0.0000    0.0000 C   0  0  0  0  0  0  0  0  0  0  0  0
   -3.7500   -1.2990    0.0000 C   0  0  0  0  0  0  0  0  0  0  0  0
   -4.5000   -2.5981    0.0000 C   0  0  0  0  0  0  0  0  0  0  0  0
   -6.0000   -2.5981    0.0000 C   0  0  0  0  0  0  0  0  0  0  0  0
   -3.7500   -3.8971    0.0000 C   0  0  0  0  0  0  0  0  0  0  0  0
   -2.2500   -1.2990    0.0000 C   0  0  0  0  0  0  0  0  0  0  0  0
    2.2500   -1.2990    0.0000 C   0  0  0  0  0  0  0  0  0  0  0  0
  1  2  1  0
  2  3  1  0
  2  4  1  0
  4  5  2  0
  5  6  1  0
  6  7  2  0
  7  8  1  0
  8  9  1  0
  9 10  1  0
 10 11  2  0
 11 12  1  0
 12 13  2  0
 13 14  1  0
 14 15  1  0
 15 16  1  0
 15 17  1  0
 14 18  2  0
  9 19  1  0
 19 20  2  0
 20 21  1  0
 21 22  2  0
 22 23  1  0
 23 24  1  0
 24 25  1  0
 24 26  1  0
 23 27  2  0
  8 28  2  0
 28  4  1  0
 18 10  1  0
 27 19  1  0
M  END
>  <linear_selectivity>  (433) 
50

>  <denticity>  (433) 
1

>  <ligand_class>  (433) 
phosphine

$$$$
P(2-iPr-Ph)3_90C_toluene
     RDKit          2D

 28 30  0  0  0  0  0  0  0  0999 V2000
    5.2500   -3.8971    0.0000 C   0  0  0  0  0  0  0  0  0  0  0  0
    4.5000   -2.5981    0.0000 C   0  0  0  0  0  0  0  0  0  0  0  0
    5.2500   -1.2990    0.0000 C   0  0  0  0  0  0  0  0  0  0  0  0
    3.0000   -2.5981    0.0000 C   0  0  0  0  0  0  0  0  0  0  0  0
    2.2500   -3.8971    0.0000 C   0  0  0  0  0  0  0  0  0  0  0  0
    0.7500   -3.8971    0.0000 C   0  0  0  0  0  0  0  0  0  0  0  0
   -0.0000   -2.5981    0.0000 C   0  0  0  0  0  0  0  0  0  0  0  0
    0.7500   -1.2990    0.0000 C   0  0  0  0  0  0  0  0  0  0  0  0
    0.0000    0.0000    0.0000 P   0  0  0  0  0  0  0  0  0  0  0  0
    0.7500    1.2990    0.0000 C   0  0  0  0  0  0  0  0  0  0  0  0
    2.2500    1.2990    0.0000 C   0  0  0  0  0  0  0  0  0  0  0  0
    3.0000    2.5981    0.0000 C   0  0  0  0  0  0  0  0  0  0  0  0
    2.2500    3.8971    0.0000 C   0  0  0  0  0  0  0  0  0  0  0  0
    0.7500    3.8971    0.0000 C   0  0  0  0  0  0  0  0  0  0  0  0
    0.0000    5.1962    0.0000 C   0  0  0  0  0  0  0  0  0  0  0  0
    0.7500    6.4952    0.0000 C   0  0  0  0  0  0  0  0  0  0  0  0
   -1.5000    5.1962    0.0000 C   0  0  0  0  0  0  0  0  0  0  0  0
    0.0000    2.5981    0.0000 C   0  0  0  0  0  0  0  0  0  0  0  0
   -1.5000    0.0000    0.0000 C   0  0  0  0  0  0  0  0  0  0  0  0
   -2.2500    1.2990    0.0000 C   0  0  0  0  0  0  0  0  0  0  0  0
   -3.7500    1.2990    0.0000 C   0  0  0  0  0  0  0  0  0  0  0  0
   -4.5000    0.0000    0.0000 C   0  0  0  0  0  0  0  0  0  0  0  0
   -3.7500   -1.2990    0.0000 C   0  0  0  0  0  0  0  0  0  0  0  0
   -4.5000   -2.5981    0.0000 C   0  0  0  0  0  0  0  0  0  0  0  0
   -6.0000   -2.5981    0.0000 C   0  0  0  0  0  0  0  0  0  0  0  0
   -3.7500   -3.8971    0.0000 C   0  0  0  0  0  0  0  0  0  0  0  0
   -2.2500   -1.2990    0.0000 C   0  0  0  0  0  0  0  0  0  0  0  0
    2.2500   -1.2990    0.0000 C   0  0  0  0  0  0  0  0  0  0  0  0
  1  2  1  0
  2  3  1  0
  2  4  1  0
  4  5  2  0
  5  6  1  0
  6  7  2  0
  7  8  1  0
  8  9  1  0
  9 10  1  0
 10 11  2  0
 11 12  1  0
 12 13  2  0
 13 14  1  0
 14 15  1  0
 15 16  1  0
 15 17  1  0
 14 18  2  0
  9 19  1  0
 19 20  2  0
 20 21  1  0
 21 22  2  0
 22 23  1  0
 23 24  1  0
 24 25  1  0
 24 26  1  0
 23 27  2  0
  8 28  2  0
 28  4  1  0
 18 10  1  0
 27 19  1  0
M  END
>  <linear_selectivity>  (434) 
50

>  <denticity>  (434) 
1

>  <ligand_class>  (434) 
phosphine

$$$$
P(2-iPr-Ph)3_90C_THF
     RDKit          2D

 28 30  0  0  0  0  0  0  0  0999 V2000
    5.2500   -3.8971    0.0000 C   0  0  0  0  0  0  0  0  0  0  0  0
    4.5000   -2.5981    0.0000 C   0  0  0  0  0  0  0  0  0  0  0  0
    5.2500   -1.2990    0.0000 C   0  0  0  0  0  0  0  0  0  0  0  0
    3.0000   -2.5981    0.0000 C   0  0  0  0  0  0  0  0  0  0  0  0
    2.2500   -3.8971    0.0000 C   0  0  0  0  0  0  0  0  0  0  0  0
    0.7500   -3.8971    0.0000 C   0  0  0  0  0  0  0  0  0  0  0  0
   -0.0000   -2.5981    0.0000 C   0  0  0  0  0  0  0  0  0  0  0  0
    0.7500   -1.2990    0.0000 C   0  0  0  0  0  0  0  0  0  0  0  0
    0.0000    0.0000    0.0000 P   0  0  0  0  0  0  0  0  0  0  0  0
    0.7500    1.2990    0.0000 C   0  0  0  0  0  0  0  0  0  0  0  0
    2.2500    1.2990    0.0000 C   0  0  0  0  0  0  0  0  0  0  0  0
    3.0000    2.5981    0.0000 C   0  0  0  0  0  0  0  0  0  0  0  0
    2.2500    3.8971    0.0000 C   0  0  0  0  0  0  0  0  0  0  0  0
    0.7500    3.8971    0.0000 C   0  0  0  0  0  0  0  0  0  0  0  0
    0.0000    5.1962    0.0000 C   0  0  0  0  0  0  0  0  0  0  0  0
    0.7500    6.4952    0.0000 C   0  0  0  0  0  0  0  0  0  0  0  0
   -1.5000    5.1962    0.0000 C   0  0  0  0  0  0  0  0  0  0  0  0
    0.0000    2.5981    0.0000 C   0  0  0  0  0  0  0  0  0  0  0  0
   -1.5000    0.0000    0.0000 C   0  0  0  0  0  0  0  0  0  0  0  0
   -2.2500    1.2990    0.0000 C   0  0  0  0  0  0  0  0  0  0  0  0
   -3.7500    1.2990    0.0000 C   0  0  0  0  0  0  0  0  0  0  0  0
   -4.5000    0.0000    0.0000 C   0  0  0  0  0  0  0  0  0  0  0  0
   -3.7500   -1.2990    0.0000 C   0  0  0  0  0  0  0  0  0  0  0  0
   -4.5000   -2.5981    0.0000 C   0  0  0  0  0  0  0  0  0  0  0  0
   -6.0000   -2.5981    0.0000 C   0  0  0  0  0  0  0  0  0  0  0  0
   -3.7500   -3.8971    0.0000 C   0  0  0  0  0  0  0  0  0  0  0  0
   -2.2500   -1.2990    0.0000 C   0  0  0  0  0  0  0  0  0  0  0  0
    2.2500   -1.2990    0.0000 C   0  0  0  0  0  0  0  0  0  0  0  0
  1  2  1  0
  2  3  1  0
  2  4  1  0
  4  5  2  0
  5  6  1  0
  6  7  2  0
  7  8  1  0
  8  9  1  0
  9 10  1  0
 10 11  2  0
 11 12  1  0
 12 13  2  0
 13 14  1  0
 14 15  1  0
 15 16  1  0
 15 17  1  0
 14 18  2  0
  9 19  1  0
 19 20  2  0
 20 21  1  0
 21 22  2  0
 22 23  1  0
 23 24  1  0
 24 25  1  0
 24 26  1  0
 23 27  2  0
  8 28  2  0
 28  4  1  0
 18 10  1  0
 27 19  1  0
M  END
>  <linear_selectivity>  (435) 
47

>  <denticity>  (435) 
1

>  <ligand_class>  (435) 
phosphine

$$$$
P(2-iPr-Ph)3_90C_dioxane
     RDKit          2D

 28 30  0  0  0  0  0  0  0  0999 V2000
    5.2500   -3.8971    0.0000 C   0  0  0  0  0  0  0  0  0  0  0  0
    4.5000   -2.5981    0.0000 C   0  0  0  0  0  0  0  0  0  0  0  0
    5.2500   -1.2990    0.0000 C   0  0  0  0  0  0  0  0  0  0  0  0
    3.0000   -2.5981    0.0000 C   0  0  0  0  0  0  0  0  0  0  0  0
    2.2500   -3.8971    0.0000 C   0  0  0  0  0  0  0  0  0  0  0  0
    0.7500   -3.8971    0.0000 C   0  0  0  0  0  0  0  0  0  0  0  0
   -0.0000   -2.5981    0.0000 C   0  0  0  0  0  0  0  0  0  0  0  0
    0.7500   -1.2990    0.0000 C   0  0  0  0  0  0  0  0  0  0  0  0
    0.0000    0.0000    0.0000 P   0  0  0  0  0  0  0  0  0  0  0  0
    0.7500    1.2990    0.0000 C   0  0  0  0  0  0  0  0  0  0  0  0
    2.2500    1.2990    0.0000 C   0  0  0  0  0  0  0  0  0  0  0  0
    3.0000    2.5981    0.0000 C   0  0  0  0  0  0  0  0  0  0  0  0
    2.2500    3.8971    0.0000 C   0  0  0  0  0  0  0  0  0  0  0  0
    0.7500    3.8971    0.0000 C   0  0  0  0  0  0  0  0  0  0  0  0
    0.0000    5.1962    0.0000 C   0  0  0  0  0  0  0  0  0  0  0  0
    0.7500    6.4952    0.0000 C   0  0  0  0  0  0  0  0  0  0  0  0
   -1.5000    5.1962    0.0000 C   0  0  0  0  0  0  0  0  0  0  0  0
    0.0000    2.5981    0.0000 C   0  0  0  0  0  0  0  0  0  0  0  0
   -1.5000    0.0000    0.0000 C   0  0  0  0  0  0  0  0  0  0  0  0
   -2.2500    1.2990    0.0000 C   0  0  0  0  0  0  0  0  0  0  0  0
   -3.7500    1.2990    0.0000 C   0  0  0  0  0  0  0  0  0  0  0  0
   -4.5000    0.0000    0.0000 C   0  0  0  0  0  0  0  0  0  0  0  0
   -3.7500   -1.2990    0.0000 C   0  0  0  0  0  0  0  0  0  0  0  0
   -4.5000   -2.5981    0.0000 C   0  0  0  0  0  0  0  0  0  0  0  0
   -6.0000   -2.5981    0.0000 C   0  0  0  0  0  0  0  0  0  0  0  0
   -3.7500   -3.8971    0.0000 C   0  0  0  0  0  0  0  0  0  0  0  0
   -2.2500   -1.2990    0.0000 C   0  0  0  0  0  0  0  0  0  0  0  0
    2.2500   -1.2990    0.0000 C   0  0  0  0  0  0  0  0  0  0  0  0
  1  2  1  0
  2  3  1  0
  2  4  1  0
  4  5  2  0
  5  6  1  0
  6  7  2  0
  7  8  1  0
  8  9  1  0
  9 10  1  0
 10 11  2  0
 11 12  1  0
 12 13  2  0
 13 14  1  0
 14 15  1  0
 15 16  1  0
 15 17  1  0
 14 18  2  0
  9 19  1  0
 19 20  2  0
 20 21  1  0
 21 22  2  0
 22 23  1  0
 23 24  1  0
 24 25  1  0
 24 26  1  0
 23 27  2  0
  8 28  2  0
 28  4  1  0
 18 10  1  0
 27 19  1  0
M  END
>  <linear_selectivity>  (436) 
49

>  <denticity>  (436) 
1

>  <ligand_class>  (436) 
phosphine

$$$$
P(2-iPr-Ph)3_90C_hexane
     RDKit          2D

 28 30  0  0  0  0  0  0  0  0999 V2000
    5.2500   -3.8971    0.0000 C   0  0  0  0  0  0  0  0  0  0  0  0
    4.5000   -2.5981    0.0000 C   0  0  0  0  0  0  0  0  0  0  0  0
    5.2500   -1.2990    0.0000 C   0  0  0  0  0  0  0  0  0  0  0  0
    3.0000   -2.5981    0.0000 C   0  0  0  0  0  0  0  0  0  0  0  0
    2.2500   -3.8971    0.0000 C   0  0  0  0  0  0  0  0  0  0  0  0
    0.7500   -3.8971    0.0000 C   0  0  0  0  0  0  0  0  0  0  0  0
   -0.0000   -2.5981    0.0000 C   0  0  0  0  0  0  0  0  0  0  0  0
    0.7500   -1.2990    0.0000 C   0  0  0  0  0  0  0  0  0  0  0  0
    0.0000    0.0000    0.0000 P   0  0  0  0  0  0  0  0  0  0  0  0
    0.7500    1.2990    0.0000 C   0  0  0  0  0  0  0  0  0  0  0  0
    2.2500    1.2990    0.0000 C   0  0  0  0  0  0  0  0  0  0  0  0
    3.0000    2.5981    0.0000 C   0  0  0  0  0  0  0  0  0  0  0  0
    2.2500    3.8971    0.0000 C   0  0  0  0  0  0  0  0  0  0  0  0
    0.7500    3.8971    0.0000 C   0  0  0  0  0  0  0  0  0  0  0  0
    0.0000    5.1962    0.0000 C   0  0  0  0  0  0  0  0  0  0  0  0
    0.7500    6.4952    0.0000 C   0  0  0  0  0  0  0  0  0  0  0  0
   -1.5000    5.1962    0.0000 C   0  0  0  0  0  0  0  0  0  0  0  0
    0.0000    2.5981    0.0000 C   0  0  0  0  0  0  0  0  0  0  0  0
   -1.5000    0.0000    0.0000 C   0  0  0  0  0  0  0  0  0  0  0  0
   -2.2500    1.2990    0.0000 C   0  0  0  0  0  0  0  0  0  0  0  0
   -3.7500    1.2990    0.0000 C   0  0  0  0  0  0  0  0  0  0  0  0
   -4.5000    0.0000    0.0000 C   0  0  0  0  0  0  0  0  0  0  0  0
   -3.7500   -1.2990    0.0000 C   0  0  0  0  0  0  0  0  0  0  0  0
   -4.5000   -2.5981    0.0000 C   0  0  0  0  0  0  0  0  0  0  0  0
   -6.0000   -2.5981    0.0000 C   0  0  0  0  0  0  0  0  0  0  0  0
   -3.7500   -3.8971    0.0000 C   0  0  0  0  0  0  0  0  0  0  0  0
   -2.2500   -1.2990    0.0000 C   0  0  0  0  0  0  0  0  0  0  0  0
    2.2500   -1.2990    0.0000 C   0  0  0  0  0  0  0  0  0  0  0  0
  1  2  1  0
  2  3  1  0
  2  4  1  0
  4  5  2  0
  5  6  1  0
  6  7  2  0
  7  8  1  0
  8  9  1  0
  9 10  1  0
 10 11  2  0
 11 12  1  0
 12 13  2  0
 13 14  1  0
 14 15  1  0
 15 16  1  0
 15 17  1  0
 14 18  2  0
  9 19  1  0
 19 20  2  0
 20 21  1  0
 21 22  2  0
 22 23  1  0
 23 24  1  0
 24 25  1  0
 24 26  1  0
 23 27  2  0
  8 28  2  0
 28  4  1  0
 18 10  1  0
 27 19  1  0
M  END
>  <linear_selectivity>  (437) 
53

>  <denticity>  (437) 
1

>  <ligand_class>  (437) 
phosphine

$$$$
P(2-iPr-Ph)3_90C_benzene
     RDKit          2D

 28 30  0  0  0  0  0  0  0  0999 V2000
    5.2500   -3.8971    0.0000 C   0  0  0  0  0  0  0  0  0  0  0  0
    4.5000   -2.5981    0.0000 C   0  0  0  0  0  0  0  0  0  0  0  0
    5.2500   -1.2990    0.0000 C   0  0  0  0  0  0  0  0  0  0  0  0
    3.0000   -2.5981    0.0000 C   0  0  0  0  0  0  0  0  0  0  0  0
    2.2500   -3.8971    0.0000 C   0  0  0  0  0  0  0  0  0  0  0  0
    0.7500   -3.8971    0.0000 C   0  0  0  0  0  0  0  0  0  0  0  0
   -0.0000   -2.5981    0.0000 C   0  0  0  0  0  0  0  0  0  0  0  0
    0.7500   -1.2990    0.0000 C   0  0  0  0  0  0  0  0  0  0  0  0
    0.0000    0.0000    0.0000 P   0  0  0  0  0  0  0  0  0  0  0  0
    0.7500    1.2990    0.0000 C   0  0  0  0  0  0  0  0  0  0  0  0
    2.2500    1.2990    0.0000 C   0  0  0  0  0  0  0  0  0  0  0  0
    3.0000    2.5981    0.0000 C   0  0  0  0  0  0  0  0  0  0  0  0
    2.2500    3.8971    0.0000 C   0  0  0  0  0  0  0  0  0  0  0  0
    0.7500    3.8971    0.0000 C   0  0  0  0  0  0  0  0  0  0  0  0
    0.0000    5.1962    0.0000 C   0  0  0  0  0  0  0  0  0  0  0  0
    0.7500    6.4952    0.0000 C   0  0  0  0  0  0  0  0  0  0  0  0
   -1.5000    5.1962    0.0000 C   0  0  0  0  0  0  0  0  0  0  0  0
    0.0000    2.5981    0.0000 C   0  0  0  0  0  0  0  0  0  0  0  0
   -1.5000    0.0000    0.0000 C   0  0  0  0  0  0  0  0  0  0  0  0
   -2.2500    1.2990    0.0000 C   0  0  0  0  0  0  0  0  0  0  0  0
   -3.7500    1.2990    0.0000 C   0  0  0  0  0  0  0  0  0  0  0  0
   -4.5000    0.0000    0.0000 C   0  0  0  0  0  0  0  0  0  0  0  0
   -3.7500   -1.2990    0.0000 C   0  0  0  0  0  0  0  0  0  0  0  0
   -4.5000   -2.5981    0.0000 C   0  0  0  0  0  0  0  0  0  0  0  0
   -6.0000   -2.5981    0.0000 C   0  0  0  0  0  0  0  0  0  0  0  0
   -3.7500   -3.8971    0.0000 C   0  0  0  0  0  0  0  0  0  0  0  0
   -2.2500   -1.2990    0.0000 C   0  0  0  0  0  0  0  0  0  0  0  0
    2.2500   -1.2990    0.0000 C   0  0  0  0  0  0  0  0  0  0  0  0
  1  2  1  0
  2  3  1  0
  2  4  1  0
  4  5  2  0
  5  6  1  0
  6  7  2  0
  7  8  1  0
  8  9  1  0
  9 10  1  0
 10 11  2  0
 11 12  1  0
 12 13  2  0
 13 14  1  0
 14 15  1  0
 15 16  1  0
 15 17  1  0
 14 18  2  0
  9 19  1  0
 19 20  2  0
 20 21  1  0
 21 22  2  0
 22 23  1  0
 23 24  1  0
 24 25  1  0
 24 26  1  0
 23 27  2  0
  8 28  2  0
 28  4  1  0
 18 10  1  0
 27 19  1  0
M  END
>  <linear_selectivity>  (438) 
50

>  <denticity>  (438) 
1

>  <ligand_class>  (438) 
phosphine

$$$$
P(2-iPr-Ph)3_100C_toluene
     RDKit          2D

 28 30  0  0  0  0  0  0  0  0999 V2000
    5.2500   -3.8971    0.0000 C   0  0  0  0  0  0  0  0  0  0  0  0
    4.5000   -2.5981    0.0000 C   0  0  0  0  0  0  0  0  0  0  0  0
    5.2500   -1.2990    0.0000 C   0  0  0  0  0  0  0  0  0  0  0  0
    3.0000   -2.5981    0.0000 C   0  0  0  0  0  0  0  0  0  0  0  0
    2.2500   -3.8971    0.0000 C   0  0  0  0  0  0  0  0  0  0  0  0
    0.7500   -3.8971    0.0000 C   0  0  0  0  0  0  0  0  0  0  0  0
   -0.0000   -2.5981    0.0000 C   0  0  0  0  0  0  0  0  0  0  0  0
    0.7500   -1.2990    0.0000 C   0  0  0  0  0  0  0  0  0  0  0  0
    0.0000    0.0000    0.0000 P   0  0  0  0  0  0  0  0  0  0  0  0
    0.7500    1.2990    0.0000 C   0  0  0  0  0  0  0  0  0  0  0  0
    2.2500    1.2990    0.0000 C   0  0  0  0  0  0  0  0  0  0  0  0
    3.0000    2.5981    0.0000 C   0  0  0  0  0  0  0  0  0  0  0  0
    2.2500    3.8971    0.0000 C   0  0  0  0  0  0  0  0  0  0  0  0
    0.7500    3.8971    0.0000 C   0  0  0  0  0  0  0  0  0  0  0  0
    0.0000    5.1962    0.0000 C   0  0  0  0  0  0  0  0  0  0  0  0
    0.7500    6.4952    0.0000 C   0  0  0  0  0  0  0  0  0  0  0  0
   -1.5000    5.1962    0.0000 C   0  0  0  0  0  0  0  0  0  0  0  0
    0.0000    2.5981    0.0000 C   0  0  0  0  0  0  0  0  0  0  0  0
   -1.5000    0.0000    0.0000 C   0  0  0  0  0  0  0  0  0  0  0  0
   -2.2500    1.2990    0.0000 C   0  0  0  0  0  0  0  0  0  0  0  0
   -3.7500    1.2990    0.0000 C   0  0  0  0  0  0  0  0  0  0  0  0
   -4.5000    0.0000    0.0000 C   0  0  0  0  0  0  0  0  0  0  0  0
   -3.7500   -1.2990    0.0000 C   0  0  0  0  0  0  0  0  0  0  0  0
   -4.5000   -2.5981    0.0000 C   0  0  0  0  0  0  0  0  0  0  0  0
   -6.0000   -2.5981    0.0000 C   0  0  0  0  0  0  0  0  0  0  0  0
   -3.7500   -3.8971    0.0000 C   0  0  0  0  0  0  0  0  0  0  0  0
   -2.2500   -1.2990    0.0000 C   0  0  0  0  0  0  0  0  0  0  0  0
    2.2500   -1.2990    0.0000 C   0  0  0  0  0  0  0  0  0  0  0  0
  1  2  1  0
  2  3  1  0
  2  4  1  0
  4  5  2  0
  5  6  1  0
  6  7  2  0
  7  8  1  0
  8  9  1  0
  9 10  1  0
 10 11  2  0
 11 12  1  0
 12 13  2  0
 13 14  1  0
 14 15  1  0
 15 16  1  0
 15 17  1  0
 14 18  2  0
  9 19  1  0
 19 20  2  0
 20 21  1  0
 21 22  2  0
 22 23  1  0
 23 24  1  0
 24 25  1  0
 24 26  1  0
 23 27  2  0
  8 28  2  0
 28  4  1  0
 18 10  1  0
 27 19  1  0
M  END
>  <linear_selectivity>  (439) 
49

>  <denticity>  (439) 
1

>  <ligand_class>  (439) 
phosphine

$$$$
P(2-iPr-Ph)3_110C_toluene
     RDKit          2D

 28 30  0  0  0  0  0  0  0  0999 V2000
    5.2500   -3.8971    0.0000 C   0  0  0  0  0  0  0  0  0  0  0  0
    4.5000   -2.5981    0.0000 C   0  0  0  0  0  0  0  0  0  0  0  0
    5.2500   -1.2990    0.0000 C   0  0  0  0  0  0  0  0  0  0  0  0
    3.0000   -2.5981    0.0000 C   0  0  0  0  0  0  0  0  0  0  0  0
    2.2500   -3.8971    0.0000 C   0  0  0  0  0  0  0  0  0  0  0  0
    0.7500   -3.8971    0.0000 C   0  0  0  0  0  0  0  0  0  0  0  0
   -0.0000   -2.5981    0.0000 C   0  0  0  0  0  0  0  0  0  0  0  0
    0.7500   -1.2990    0.0000 C   0  0  0  0  0  0  0  0  0  0  0  0
    0.0000    0.0000    0.0000 P   0  0  0  0  0  0  0  0  0  0  0  0
    0.7500    1.2990    0.0000 C   0  0  0  0  0  0  0  0  0  0  0  0
    2.2500    1.2990    0.0000 C   0  0  0  0  0  0  0  0  0  0  0  0
    3.0000    2.5981    0.0000 C   0  0  0  0  0  0  0  0  0  0  0  0
    2.2500    3.8971    0.0000 C   0  0  0  0  0  0  0  0  0  0  0  0
    0.7500    3.8971    0.0000 C   0  0  0  0  0  0  0  0  0  0  0  0
    0.0000    5.1962    0.0000 C   0  0  0  0  0  0  0  0  0  0  0  0
    0.7500    6.4952    0.0000 C   0  0  0  0  0  0  0  0  0  0  0  0
   -1.5000    5.1962    0.0000 C   0  0  0  0  0  0  0  0  0  0  0  0
    0.0000    2.5981    0.0000 C   0  0  0  0  0  0  0  0  0  0  0  0
   -1.5000    0.0000    0.0000 C   0  0  0  0  0  0  0  0  0  0  0  0
   -2.2500    1.2990    0.0000 C   0  0  0  0  0  0  0  0  0  0  0  0
   -3.7500    1.2990    0.0000 C   0  0  0  0  0  0  0  0  0  0  0  0
   -4.5000    0.0000    0.0000 C   0  0  0  0  0  0  0  0  0  0  0  0
   -3.7500   -1.2990    0.0000 C   0  0  0  0  0  0  0  0  0  0  0  0
   -4.5000   -2.5981    0.0000 C   0  0  0  0  0  0  0  0  0  0  0  0
   -6.0000   -2.5981    0.0000 C   0  0  0  0  0  0  0  0  0  0  0  0
   -3.7500   -3.8971    0.0000 C   0  0  0  0  0  0  0  0  0  0  0  0
   -2.2500   -1.2990    0.0000 C   0  0  0  0  0  0  0  0  0  0  0  0
    2.2500   -1.2990    0.0000 C   0  0  0  0  0  0  0  0  0  0  0  0
  1  2  1  0
  2  3  1  0
  2  4  1  0
  4  5  2  0
  5  6  1  0
  6  7  2  0
  7  8  1  0
  8  9  1  0
  9 10  1  0
 10 11  2  0
 11 12  1  0
 12 13  2  0
 13 14  1  0
 14 15  1  0
 15 16  1  0
 15 17  1  0
 14 18  2  0
  9 19  1  0
 19 20  2  0
 20 21  1  0
 21 22  2  0
 22 23  1  0
 23 24  1  0
 24 25  1  0
 24 26  1  0
 23 27  2  0
  8 28  2  0
 28  4  1  0
 18 10  1  0
 27 19  1  0
M  END
>  <linear_selectivity>  (440) 
46

>  <denticity>  (440) 
1

>  <ligand_class>  (440) 
phosphine

$$$$
P(2-iPr-Ph)3_110C_dioxane
     RDKit          2D

 28 30  0  0  0  0  0  0  0  0999 V2000
    5.2500   -3.8971    0.0000 C   0  0  0  0  0  0  0  0  0  0  0  0
    4.5000   -2.5981    0.0000 C   0  0  0  0  0  0  0  0  0  0  0  0
    5.2500   -1.2990    0.0000 C   0  0  0  0  0  0  0  0  0  0  0  0
    3.0000   -2.5981    0.0000 C   0  0  0  0  0  0  0  0  0  0  0  0
    2.2500   -3.8971    0.0000 C   0  0  0  0  0  0  0  0  0  0  0  0
    0.7500   -3.8971    0.0000 C   0  0  0  0  0  0  0  0  0  0  0  0
   -0.0000   -2.5981    0.0000 C   0  0  0  0  0  0  0  0  0  0  0  0
    0.7500   -1.2990    0.0000 C   0  0  0  0  0  0  0  0  0  0  0  0
    0.0000    0.0000    0.0000 P   0  0  0  0  0  0  0  0  0  0  0  0
    0.7500    1.2990    0.0000 C   0  0  0  0  0  0  0  0  0  0  0  0
    2.2500    1.2990    0.0000 C   0  0  0  0  0  0  0  0  0  0  0  0
    3.0000    2.5981    0.0000 C   0  0  0  0  0  0  0  0  0  0  0  0
    2.2500    3.8971    0.0000 C   0  0  0  0  0  0  0  0  0  0  0  0
    0.7500    3.8971    0.0000 C   0  0  0  0  0  0  0  0  0  0  0  0
    0.0000    5.1962    0.0000 C   0  0  0  0  0  0  0  0  0  0  0  0
    0.7500    6.4952    0.0000 C   0  0  0  0  0  0  0  0  0  0  0  0
   -1.5000    5.1962    0.0000 C   0  0  0  0  0  0  0  0  0  0  0  0
    0.0000    2.5981    0.0000 C   0  0  0  0  0  0  0  0  0  0  0  0
   -1.5000    0.0000    0.0000 C   0  0  0  0  0  0  0  0  0  0  0  0
   -2.2500    1.2990    0.0000 C   0  0  0  0  0  0  0  0  0  0  0  0
   -3.7500    1.2990    0.0000 C   0  0  0  0  0  0  0  0  0  0  0  0
   -4.5000    0.0000    0.0000 C   0  0  0  0  0  0  0  0  0  0  0  0
   -3.7500   -1.2990    0.0000 C   0  0  0  0  0  0  0  0  0  0  0  0
   -4.5000   -2.5981    0.0000 C   0  0  0  0  0  0  0  0  0  0  0  0
   -6.0000   -2.5981    0.0000 C   0  0  0  0  0  0  0  0  0  0  0  0
   -3.7500   -3.8971    0.0000 C   0  0  0  0  0  0  0  0  0  0  0  0
   -2.2500   -1.2990    0.0000 C   0  0  0  0  0  0  0  0  0  0  0  0
    2.2500   -1.2990    0.0000 C   0  0  0  0  0  0  0  0  0  0  0  0
  1  2  1  0
  2  3  1  0
  2  4  1  0
  4  5  2  0
  5  6  1  0
  6  7  2  0
  7  8  1  0
  8  9  1  0
  9 10  1  0
 10 11  2  0
 11 12  1  0
 12 13  2  0
 13 14  1  0
 14 15  1  0
 15 16  1  0
 15 17  1  0
 14 18  2  0
  9 19  1  0
 19 20  2  0
 20 21  1  0
 21 22  2  0
 22 23  1  0
 23 24  1  0
 24 25  1  0
 24 26  1  0
 23 27  2  0
  8 28  2  0
 28  4  1  0
 18 10  1  0
 27 19  1  0
M  END
>  <linear_selectivity>  (441) 
46

>  <denticity>  (441) 
1

>  <ligand_class>  (441) 
phosphine

$$$$
P(2-iPr-Ph)3_110C_benzene
     RDKit          2D

 28 30  0  0  0  0  0  0  0  0999 V2000
    5.2500   -3.8971    0.0000 C   0  0  0  0  0  0  0  0  0  0  0  0
    4.5000   -2.5981    0.0000 C   0  0  0  0  0  0  0  0  0  0  0  0
    5.2500   -1.2990    0.0000 C   0  0  0  0  0  0  0  0  0  0  0  0
    3.0000   -2.5981    0.0000 C   0  0  0  0  0  0  0  0  0  0  0  0
    2.2500   -3.8971    0.0000 C   0  0  0  0  0  0  0  0  0  0  0  0
    0.7500   -3.8971    0.0000 C   0  0  0  0  0  0  0  0  0  0  0  0
   -0.0000   -2.5981    0.0000 C   0  0  0  0  0  0  0  0  0  0  0  0
    0.7500   -1.2990    0.0000 C   0  0  0  0  0  0  0  0  0  0  0  0
    0.0000    0.0000    0.0000 P   0  0  0  0  0  0  0  0  0  0  0  0
    0.7500    1.2990    0.0000 C   0  0  0  0  0  0  0  0  0  0  0  0
    2.2500    1.2990    0.0000 C   0  0  0  0  0  0  0  0  0  0  0  0
    3.0000    2.5981    0.0000 C   0  0  0  0  0  0  0  0  0  0  0  0
    2.2500    3.8971    0.0000 C   0  0  0  0  0  0  0  0  0  0  0  0
    0.7500    3.8971    0.0000 C   0  0  0  0  0  0  0  0  0  0  0  0
    0.0000    5.1962    0.0000 C   0  0  0  0  0  0  0  0  0  0  0  0
    0.7500    6.4952    0.0000 C   0  0  0  0  0  0  0  0  0  0  0  0
   -1.5000    5.1962    0.0000 C   0  0  0  0  0  0  0  0  0  0  0  0
    0.0000    2.5981    0.0000 C   0  0  0  0  0  0  0  0  0  0  0  0
   -1.5000    0.0000    0.0000 C   0  0  0  0  0  0  0  0  0  0  0  0
   -2.2500    1.2990    0.0000 C   0  0  0  0  0  0  0  0  0  0  0  0
   -3.7500    1.2990    0.0000 C   0  0  0  0  0  0  0  0  0  0  0  0
   -4.5000    0.0000    0.0000 C   0  0  0  0  0  0  0  0  0  0  0  0
   -3.7500   -1.2990    0.0000 C   0  0  0  0  0  0  0  0  0  0  0  0
   -4.5000   -2.5981    0.0000 C   0  0  0  0  0  0  0  0  0  0  0  0
   -6.0000   -2.5981    0.0000 C   0  0  0  0  0  0  0  0  0  0  0  0
   -3.7500   -3.8971    0.0000 C   0  0  0  0  0  0  0  0  0  0  0  0
   -2.2500   -1.2990    0.0000 C   0  0  0  0  0  0  0  0  0  0  0  0
    2.2500   -1.2990    0.0000 C   0  0  0  0  0  0  0  0  0  0  0  0
  1  2  1  0
  2  3  1  0
  2  4  1  0
  4  5  2  0
  5  6  1  0
  6  7  2  0
  7  8  1  0
  8  9  1  0
  9 10  1  0
 10 11  2  0
 11 12  1  0
 12 13  2  0
 13 14  1  0
 14 15  1  0
 15 16  1  0
 15 17  1  0
 14 18  2  0
  9 19  1  0
 19 20  2  0
 20 21  1  0
 21 22  2  0
 22 23  1  0
 23 24  1  0
 24 25  1  0
 24 26  1  0
 23 27  2  0
  8 28  2  0
 28  4  1  0
 18 10  1  0
 27 19  1  0
M  END
>  <linear_selectivity>  (442) 
47

>  <denticity>  (442) 
1

>  <ligand_class>  (442) 
phosphine

$$$$
P(2-iPr-Ph)3_110C_xylene
     RDKit          2D

 28 30  0  0  0  0  0  0  0  0999 V2000
    5.2500   -3.8971    0.0000 C   0  0  0  0  0  0  0  0  0  0  0  0
    4.5000   -2.5981    0.0000 C   0  0  0  0  0  0  0  0  0  0  0  0
    5.2500   -1.2990    0.0000 C   0  0  0  0  0  0  0  0  0  0  0  0
    3.0000   -2.5981    0.0000 C   0  0  0  0  0  0  0  0  0  0  0  0
    2.2500   -3.8971    0.0000 C   0  0  0  0  0  0  0  0  0  0  0  0
    0.7500   -3.8971    0.0000 C   0  0  0  0  0  0  0  0  0  0  0  0
   -0.0000   -2.5981    0.0000 C   0  0  0  0  0  0  0  0  0  0  0  0
    0.7500   -1.2990    0.0000 C   0  0  0  0  0  0  0  0  0  0  0  0
    0.0000    0.0000    0.0000 P   0  0  0  0  0  0  0  0  0  0  0  0
    0.7500    1.2990    0.0000 C   0  0  0  0  0  0  0  0  0  0  0  0
    2.2500    1.2990    0.0000 C   0  0  0  0  0  0  0  0  0  0  0  0
    3.0000    2.5981    0.0000 C   0  0  0  0  0  0  0  0  0  0  0  0
    2.2500    3.8971    0.0000 C   0  0  0  0  0  0  0  0  0  0  0  0
    0.7500    3.8971    0.0000 C   0  0  0  0  0  0  0  0  0  0  0  0
    0.0000    5.1962    0.0000 C   0  0  0  0  0  0  0  0  0  0  0  0
    0.7500    6.4952    0.0000 C   0  0  0  0  0  0  0  0  0  0  0  0
   -1.5000    5.1962    0.0000 C   0  0  0  0  0  0  0  0  0  0  0  0
    0.0000    2.5981    0.0000 C   0  0  0  0  0  0  0  0  0  0  0  0
   -1.5000    0.0000    0.0000 C   0  0  0  0  0  0  0  0  0  0  0  0
   -2.2500    1.2990    0.0000 C   0  0  0  0  0  0  0  0  0  0  0  0
   -3.7500    1.2990    0.0000 C   0  0  0  0  0  0  0  0  0  0  0  0
   -4.5000    0.0000    0.0000 C   0  0  0  0  0  0  0  0  0  0  0  0
   -3.7500   -1.2990    0.0000 C   0  0  0  0  0  0  0  0  0  0  0  0
   -4.5000   -2.5981    0.0000 C   0  0  0  0  0  0  0  0  0  0  0  0
   -6.0000   -2.5981    0.0000 C   0  0  0  0  0  0  0  0  0  0  0  0
   -3.7500   -3.8971    0.0000 C   0  0  0  0  0  0  0  0  0  0  0  0
   -2.2500   -1.2990    0.0000 C   0  0  0  0  0  0  0  0  0  0  0  0
    2.2500   -1.2990    0.0000 C   0  0  0  0  0  0  0  0  0  0  0  0
  1  2  1  0
  2  3  1  0
  2  4  1  0
  4  5  2  0
  5  6  1  0
  6  7  2  0
  7  8  1  0
  8  9  1  0
  9 10  1  0
 10 11  2  0
 11 12  1  0
 12 13  2  0
 13 14  1  0
 14 15  1  0
 15 16  1  0
 15 17  1  0
 14 18  2  0
  9 19  1  0
 19 20  2  0
 20 21  1  0
 21 22  2  0
 22 23  1  0
 23 24  1  0
 24 25  1  0
 24 26  1  0
 23 27  2  0
  8 28  2  0
 28  4  1  0
 18 10  1  0
 27 19  1  0
M  END
>  <linear_selectivity>  (443) 
47

>  <denticity>  (443) 
1

>  <ligand_class>  (443) 
phosphine

$$$$
P(2-iPr-Ph)3_120C_toluene
     RDKit          2D

 28 30  0  0  0  0  0  0  0  0999 V2000
    5.2500   -3.8971    0.0000 C   0  0  0  0  0  0  0  0  0  0  0  0
    4.5000   -2.5981    0.0000 C   0  0  0  0  0  0  0  0  0  0  0  0
    5.2500   -1.2990    0.0000 C   0  0  0  0  0  0  0  0  0  0  0  0
    3.0000   -2.5981    0.0000 C   0  0  0  0  0  0  0  0  0  0  0  0
    2.2500   -3.8971    0.0000 C   0  0  0  0  0  0  0  0  0  0  0  0
    0.7500   -3.8971    0.0000 C   0  0  0  0  0  0  0  0  0  0  0  0
   -0.0000   -2.5981    0.0000 C   0  0  0  0  0  0  0  0  0  0  0  0
    0.7500   -1.2990    0.0000 C   0  0  0  0  0  0  0  0  0  0  0  0
    0.0000    0.0000    0.0000 P   0  0  0  0  0  0  0  0  0  0  0  0
    0.7500    1.2990    0.0000 C   0  0  0  0  0  0  0  0  0  0  0  0
    2.2500    1.2990    0.0000 C   0  0  0  0  0  0  0  0  0  0  0  0
    3.0000    2.5981    0.0000 C   0  0  0  0  0  0  0  0  0  0  0  0
    2.2500    3.8971    0.0000 C   0  0  0  0  0  0  0  0  0  0  0  0
    0.7500    3.8971    0.0000 C   0  0  0  0  0  0  0  0  0  0  0  0
    0.0000    5.1962    0.0000 C   0  0  0  0  0  0  0  0  0  0  0  0
    0.7500    6.4952    0.0000 C   0  0  0  0  0  0  0  0  0  0  0  0
   -1.5000    5.1962    0.0000 C   0  0  0  0  0  0  0  0  0  0  0  0
    0.0000    2.5981    0.0000 C   0  0  0  0  0  0  0  0  0  0  0  0
   -1.5000    0.0000    0.0000 C   0  0  0  0  0  0  0  0  0  0  0  0
   -2.2500    1.2990    0.0000 C   0  0  0  0  0  0  0  0  0  0  0  0
   -3.7500    1.2990    0.0000 C   0  0  0  0  0  0  0  0  0  0  0  0
   -4.5000    0.0000    0.0000 C   0  0  0  0  0  0  0  0  0  0  0  0
   -3.7500   -1.2990    0.0000 C   0  0  0  0  0  0  0  0  0  0  0  0
   -4.5000   -2.5981    0.0000 C   0  0  0  0  0  0  0  0  0  0  0  0
   -6.0000   -2.5981    0.0000 C   0  0  0  0  0  0  0  0  0  0  0  0
   -3.7500   -3.8971    0.0000 C   0  0  0  0  0  0  0  0  0  0  0  0
   -2.2500   -1.2990    0.0000 C   0  0  0  0  0  0  0  0  0  0  0  0
    2.2500   -1.2990    0.0000 C   0  0  0  0  0  0  0  0  0  0  0  0
  1  2  1  0
  2  3  1  0
  2  4  1  0
  4  5  2  0
  5  6  1  0
  6  7  2  0
  7  8  1  0
  8  9  1  0
  9 10  1  0
 10 11  2  0
 11 12  1  0
 12 13  2  0
 13 14  1  0
 14 15  1  0
 15 16  1  0
 15 17  1  0
 14 18  2  0
  9 19  1  0
 19 20  2  0
 20 21  1  0
 21 22  2  0
 22 23  1  0
 23 24  1  0
 24 25  1  0
 24 26  1  0
 23 27  2  0
  8 28  2  0
 28  4  1  0
 18 10  1  0
 27 19  1  0
M  END
>  <linear_selectivity>  (444) 
45

>  <denticity>  (444) 
1

>  <ligand_class>  (444) 
phosphine

$$$$
P(2-iPr-Ph)3_120C_dioxane
     RDKit          2D

 28 30  0  0  0  0  0  0  0  0999 V2000
    5.2500   -3.8971    0.0000 C   0  0  0  0  0  0  0  0  0  0  0  0
    4.5000   -2.5981    0.0000 C   0  0  0  0  0  0  0  0  0  0  0  0
    5.2500   -1.2990    0.0000 C   0  0  0  0  0  0  0  0  0  0  0  0
    3.0000   -2.5981    0.0000 C   0  0  0  0  0  0  0  0  0  0  0  0
    2.2500   -3.8971    0.0000 C   0  0  0  0  0  0  0  0  0  0  0  0
    0.7500   -3.8971    0.0000 C   0  0  0  0  0  0  0  0  0  0  0  0
   -0.0000   -2.5981    0.0000 C   0  0  0  0  0  0  0  0  0  0  0  0
    0.7500   -1.2990    0.0000 C   0  0  0  0  0  0  0  0  0  0  0  0
    0.0000    0.0000    0.0000 P   0  0  0  0  0  0  0  0  0  0  0  0
    0.7500    1.2990    0.0000 C   0  0  0  0  0  0  0  0  0  0  0  0
    2.2500    1.2990    0.0000 C   0  0  0  0  0  0  0  0  0  0  0  0
    3.0000    2.5981    0.0000 C   0  0  0  0  0  0  0  0  0  0  0  0
    2.2500    3.8971    0.0000 C   0  0  0  0  0  0  0  0  0  0  0  0
    0.7500    3.8971    0.0000 C   0  0  0  0  0  0  0  0  0  0  0  0
    0.0000    5.1962    0.0000 C   0  0  0  0  0  0  0  0  0  0  0  0
    0.7500    6.4952    0.0000 C   0  0  0  0  0  0  0  0  0  0  0  0
   -1.5000    5.1962    0.0000 C   0  0  0  0  0  0  0  0  0  0  0  0
    0.0000    2.5981    0.0000 C   0  0  0  0  0  0  0  0  0  0  0  0
   -1.5000    0.0000    0.0000 C   0  0  0  0  0  0  0  0  0  0  0  0
   -2.2500    1.2990    0.0000 C   0  0  0  0  0  0  0  0  0  0  0  0
   -3.7500    1.2990    0.0000 C   0  0  0  0  0  0  0  0  0  0  0  0
   -4.5000    0.0000    0.0000 C   0  0  0  0  0  0  0  0  0  0  0  0
   -3.7500   -1.2990    0.0000 C   0  0  0  0  0  0  0  0  0  0  0  0
   -4.5000   -2.5981    0.0000 C   0  0  0  0  0  0  0  0  0  0  0  0
   -6.0000   -2.5981    0.0000 C   0  0  0  0  0  0  0  0  0  0  0  0
   -3.7500   -3.8971    0.0000 C   0  0  0  0  0  0  0  0  0  0  0  0
   -2.2500   -1.2990    0.0000 C   0  0  0  0  0  0  0  0  0  0  0  0
    2.2500   -1.2990    0.0000 C   0  0  0  0  0  0  0  0  0  0  0  0
  1  2  1  0
  2  3  1  0
  2  4  1  0
  4  5  2  0
  5  6  1  0
  6  7  2  0
  7  8  1  0
  8  9  1  0
  9 10  1  0
 10 11  2  0
 11 12  1  0
 12 13  2  0
 13 14  1  0
 14 15  1  0
 15 16  1  0
 15 17  1  0
 14 18  2  0
  9 19  1  0
 19 20  2  0
 20 21  1  0
 21 22  2  0
 22 23  1  0
 23 24  1  0
 24 25  1  0
 24 26  1  0
 23 27  2  0
  8 28  2  0
 28  4  1  0
 18 10  1  0
 27 19  1  0
M  END
>  <linear_selectivity>  (445) 
41

>  <denticity>  (445) 
1

>  <ligand_class>  (445) 
phosphine

$$$$
P(2-iPr-Ph)3_130C_toluene
     RDKit          2D

 28 30  0  0  0  0  0  0  0  0999 V2000
    5.2500   -3.8971    0.0000 C   0  0  0  0  0  0  0  0  0  0  0  0
    4.5000   -2.5981    0.0000 C   0  0  0  0  0  0  0  0  0  0  0  0
    5.2500   -1.2990    0.0000 C   0  0  0  0  0  0  0  0  0  0  0  0
    3.0000   -2.5981    0.0000 C   0  0  0  0  0  0  0  0  0  0  0  0
    2.2500   -3.8971    0.0000 C   0  0  0  0  0  0  0  0  0  0  0  0
    0.7500   -3.8971    0.0000 C   0  0  0  0  0  0  0  0  0  0  0  0
   -0.0000   -2.5981    0.0000 C   0  0  0  0  0  0  0  0  0  0  0  0
    0.7500   -1.2990    0.0000 C   0  0  0  0  0  0  0  0  0  0  0  0
    0.0000    0.0000    0.0000 P   0  0  0  0  0  0  0  0  0  0  0  0
    0.7500    1.2990    0.0000 C   0  0  0  0  0  0  0  0  0  0  0  0
    2.2500    1.2990    0.0000 C   0  0  0  0  0  0  0  0  0  0  0  0
    3.0000    2.5981    0.0000 C   0  0  0  0  0  0  0  0  0  0  0  0
    2.2500    3.8971    0.0000 C   0  0  0  0  0  0  0  0  0  0  0  0
    0.7500    3.8971    0.0000 C   0  0  0  0  0  0  0  0  0  0  0  0
    0.0000    5.1962    0.0000 C   0  0  0  0  0  0  0  0  0  0  0  0
    0.7500    6.4952    0.0000 C   0  0  0  0  0  0  0  0  0  0  0  0
   -1.5000    5.1962    0.0000 C   0  0  0  0  0  0  0  0  0  0  0  0
    0.0000    2.5981    0.0000 C   0  0  0  0  0  0  0  0  0  0  0  0
   -1.5000    0.0000    0.0000 C   0  0  0  0  0  0  0  0  0  0  0  0
   -2.2500    1.2990    0.0000 C   0  0  0  0  0  0  0  0  0  0  0  0
   -3.7500    1.2990    0.0000 C   0  0  0  0  0  0  0  0  0  0  0  0
   -4.5000    0.0000    0.0000 C   0  0  0  0  0  0  0  0  0  0  0  0
   -3.7500   -1.2990    0.0000 C   0  0  0  0  0  0  0  0  0  0  0  0
   -4.5000   -2.5981    0.0000 C   0  0  0  0  0  0  0  0  0  0  0  0
   -6.0000   -2.5981    0.0000 C   0  0  0  0  0  0  0  0  0  0  0  0
   -3.7500   -3.8971    0.0000 C   0  0  0  0  0  0  0  0  0  0  0  0
   -2.2500   -1.2990    0.0000 C   0  0  0  0  0  0  0  0  0  0  0  0
    2.2500   -1.2990    0.0000 C   0  0  0  0  0  0  0  0  0  0  0  0
  1  2  1  0
  2  3  1  0
  2  4  1  0
  4  5  2  0
  5  6  1  0
  6  7  2  0
  7  8  1  0
  8  9  1  0
  9 10  1  0
 10 11  2  0
 11 12  1  0
 12 13  2  0
 13 14  1  0
 14 15  1  0
 15 16  1  0
 15 17  1  0
 14 18  2  0
  9 19  1  0
 19 20  2  0
 20 21  1  0
 21 22  2  0
 22 23  1  0
 23 24  1  0
 24 25  1  0
 24 26  1  0
 23 27  2  0
  8 28  2  0
 28  4  1  0
 18 10  1  0
 27 19  1  0
M  END
>  <linear_selectivity>  (446) 
40

>  <denticity>  (446) 
1

>  <ligand_class>  (446) 
phosphine

$$$$
P(2-iPr-Ph)3_130C_THF
     RDKit          2D

 28 30  0  0  0  0  0  0  0  0999 V2000
    5.2500   -3.8971    0.0000 C   0  0  0  0  0  0  0  0  0  0  0  0
    4.5000   -2.5981    0.0000 C   0  0  0  0  0  0  0  0  0  0  0  0
    5.2500   -1.2990    0.0000 C   0  0  0  0  0  0  0  0  0  0  0  0
    3.0000   -2.5981    0.0000 C   0  0  0  0  0  0  0  0  0  0  0  0
    2.2500   -3.8971    0.0000 C   0  0  0  0  0  0  0  0  0  0  0  0
    0.7500   -3.8971    0.0000 C   0  0  0  0  0  0  0  0  0  0  0  0
   -0.0000   -2.5981    0.0000 C   0  0  0  0  0  0  0  0  0  0  0  0
    0.7500   -1.2990    0.0000 C   0  0  0  0  0  0  0  0  0  0  0  0
    0.0000    0.0000    0.0000 P   0  0  0  0  0  0  0  0  0  0  0  0
    0.7500    1.2990    0.0000 C   0  0  0  0  0  0  0  0  0  0  0  0
    2.2500    1.2990    0.0000 C   0  0  0  0  0  0  0  0  0  0  0  0
    3.0000    2.5981    0.0000 C   0  0  0  0  0  0  0  0  0  0  0  0
    2.2500    3.8971    0.0000 C   0  0  0  0  0  0  0  0  0  0  0  0
    0.7500    3.8971    0.0000 C   0  0  0  0  0  0  0  0  0  0  0  0
    0.0000    5.1962    0.0000 C   0  0  0  0  0  0  0  0  0  0  0  0
    0.7500    6.4952    0.0000 C   0  0  0  0  0  0  0  0  0  0  0  0
   -1.5000    5.1962    0.0000 C   0  0  0  0  0  0  0  0  0  0  0  0
    0.0000    2.5981    0.0000 C   0  0  0  0  0  0  0  0  0  0  0  0
   -1.5000    0.0000    0.0000 C   0  0  0  0  0  0  0  0  0  0  0  0
   -2.2500    1.2990    0.0000 C   0  0  0  0  0  0  0  0  0  0  0  0
   -3.7500    1.2990    0.0000 C   0  0  0  0  0  0  0  0  0  0  0  0
   -4.5000    0.0000    0.0000 C   0  0  0  0  0  0  0  0  0  0  0  0
   -3.7500   -1.2990    0.0000 C   0  0  0  0  0  0  0  0  0  0  0  0
   -4.5000   -2.5981    0.0000 C   0  0  0  0  0  0  0  0  0  0  0  0
   -6.0000   -2.5981    0.0000 C   0  0  0  0  0  0  0  0  0  0  0  0
   -3.7500   -3.8971    0.0000 C   0  0  0  0  0  0  0  0  0  0  0  0
   -2.2500   -1.2990    0.0000 C   0  0  0  0  0  0  0  0  0  0  0  0
    2.2500   -1.2990    0.0000 C   0  0  0  0  0  0  0  0  0  0  0  0
  1  2  1  0
  2  3  1  0
  2  4  1  0
  4  5  2  0
  5  6  1  0
  6  7  2  0
  7  8  1  0
  8  9  1  0
  9 10  1  0
 10 11  2  0
 11 12  1  0
 12 13  2  0
 13 14  1  0
 14 15  1  0
 15 16  1  0
 15 17  1  0
 14 18  2  0
  9 19  1  0
 19 20  2  0
 20 21  1  0
 21 22  2  0
 22 23  1  0
 23 24  1  0
 24 25  1  0
 24 26  1  0
 23 27  2  0
  8 28  2  0
 28  4  1  0
 18 10  1  0
 27 19  1  0
M  END
>  <linear_selectivity>  (447) 
37

>  <denticity>  (447) 
1

>  <ligand_class>  (447) 
phosphine

$$$$
P(2-iPr-Ph)3_130C_hexane
     RDKit          2D

 28 30  0  0  0  0  0  0  0  0999 V2000
    5.2500   -3.8971    0.0000 C   0  0  0  0  0  0  0  0  0  0  0  0
    4.5000   -2.5981    0.0000 C   0  0  0  0  0  0  0  0  0  0  0  0
    5.2500   -1.2990    0.0000 C   0  0  0  0  0  0  0  0  0  0  0  0
    3.0000   -2.5981    0.0000 C   0  0  0  0  0  0  0  0  0  0  0  0
    2.2500   -3.8971    0.0000 C   0  0  0  0  0  0  0  0  0  0  0  0
    0.7500   -3.8971    0.0000 C   0  0  0  0  0  0  0  0  0  0  0  0
   -0.0000   -2.5981    0.0000 C   0  0  0  0  0  0  0  0  0  0  0  0
    0.7500   -1.2990    0.0000 C   0  0  0  0  0  0  0  0  0  0  0  0
    0.0000    0.0000    0.0000 P   0  0  0  0  0  0  0  0  0  0  0  0
    0.7500    1.2990    0.0000 C   0  0  0  0  0  0  0  0  0  0  0  0
    2.2500    1.2990    0.0000 C   0  0  0  0  0  0  0  0  0  0  0  0
    3.0000    2.5981    0.0000 C   0  0  0  0  0  0  0  0  0  0  0  0
    2.2500    3.8971    0.0000 C   0  0  0  0  0  0  0  0  0  0  0  0
    0.7500    3.8971    0.0000 C   0  0  0  0  0  0  0  0  0  0  0  0
    0.0000    5.1962    0.0000 C   0  0  0  0  0  0  0  0  0  0  0  0
    0.7500    6.4952    0.0000 C   0  0  0  0  0  0  0  0  0  0  0  0
   -1.5000    5.1962    0.0000 C   0  0  0  0  0  0  0  0  0  0  0  0
    0.0000    2.5981    0.0000 C   0  0  0  0  0  0  0  0  0  0  0  0
   -1.5000    0.0000    0.0000 C   0  0  0  0  0  0  0  0  0  0  0  0
   -2.2500    1.2990    0.0000 C   0  0  0  0  0  0  0  0  0  0  0  0
   -3.7500    1.2990    0.0000 C   0  0  0  0  0  0  0  0  0  0  0  0
   -4.5000    0.0000    0.0000 C   0  0  0  0  0  0  0  0  0  0  0  0
   -3.7500   -1.2990    0.0000 C   0  0  0  0  0  0  0  0  0  0  0  0
   -4.5000   -2.5981    0.0000 C   0  0  0  0  0  0  0  0  0  0  0  0
   -6.0000   -2.5981    0.0000 C   0  0  0  0  0  0  0  0  0  0  0  0
   -3.7500   -3.8971    0.0000 C   0  0  0  0  0  0  0  0  0  0  0  0
   -2.2500   -1.2990    0.0000 C   0  0  0  0  0  0  0  0  0  0  0  0
    2.2500   -1.2990    0.0000 C   0  0  0  0  0  0  0  0  0  0  0  0
  1  2  1  0
  2  3  1  0
  2  4  1  0
  4  5  2  0
  5  6  1  0
  6  7  2  0
  7  8  1  0
  8  9  1  0
  9 10  1  0
 10 11  2  0
 11 12  1  0
 12 13  2  0
 13 14  1  0
 14 15  1  0
 15 16  1  0
 15 17  1  0
 14 18  2  0
  9 19  1  0
 19 20  2  0
 20 21  1  0
 21 22  2  0
 22 23  1  0
 23 24  1  0
 24 25  1  0
 24 26  1  0
 23 27  2  0
  8 28  2  0
 28  4  1  0
 18 10  1  0
 27 19  1  0
M  END
>  <linear_selectivity>  (448) 
42

>  <denticity>  (448) 
1

>  <ligand_class>  (448) 
phosphine

$$$$
P(2-iPr-Ph)3_130C_benzene
     RDKit          2D

 28 30  0  0  0  0  0  0  0  0999 V2000
    5.2500   -3.8971    0.0000 C   0  0  0  0  0  0  0  0  0  0  0  0
    4.5000   -2.5981    0.0000 C   0  0  0  0  0  0  0  0  0  0  0  0
    5.2500   -1.2990    0.0000 C   0  0  0  0  0  0  0  0  0  0  0  0
    3.0000   -2.5981    0.0000 C   0  0  0  0  0  0  0  0  0  0  0  0
    2.2500   -3.8971    0.0000 C   0  0  0  0  0  0  0  0  0  0  0  0
    0.7500   -3.8971    0.0000 C   0  0  0  0  0  0  0  0  0  0  0  0
   -0.0000   -2.5981    0.0000 C   0  0  0  0  0  0  0  0  0  0  0  0
    0.7500   -1.2990    0.0000 C   0  0  0  0  0  0  0  0  0  0  0  0
    0.0000    0.0000    0.0000 P   0  0  0  0  0  0  0  0  0  0  0  0
    0.7500    1.2990    0.0000 C   0  0  0  0  0  0  0  0  0  0  0  0
    2.2500    1.2990    0.0000 C   0  0  0  0  0  0  0  0  0  0  0  0
    3.0000    2.5981    0.0000 C   0  0  0  0  0  0  0  0  0  0  0  0
    2.2500    3.8971    0.0000 C   0  0  0  0  0  0  0  0  0  0  0  0
    0.7500    3.8971    0.0000 C   0  0  0  0  0  0  0  0  0  0  0  0
    0.0000    5.1962    0.0000 C   0  0  0  0  0  0  0  0  0  0  0  0
    0.7500    6.4952    0.0000 C   0  0  0  0  0  0  0  0  0  0  0  0
   -1.5000    5.1962    0.0000 C   0  0  0  0  0  0  0  0  0  0  0  0
    0.0000    2.5981    0.0000 C   0  0  0  0  0  0  0  0  0  0  0  0
   -1.5000    0.0000    0.0000 C   0  0  0  0  0  0  0  0  0  0  0  0
   -2.2500    1.2990    0.0000 C   0  0  0  0  0  0  0  0  0  0  0  0
   -3.7500    1.2990    0.0000 C   0  0  0  0  0  0  0  0  0  0  0  0
   -4.5000    0.0000    0.0000 C   0  0  0  0  0  0  0  0  0  0  0  0
   -3.7500   -1.2990    0.0000 C   0  0  0  0  0  0  0  0  0  0  0  0
   -4.5000   -2.5981    0.0000 C   0  0  0  0  0  0  0  0  0  0  0  0
   -6.0000   -2.5981    0.0000 C   0  0  0  0  0  0  0  0  0  0  0  0
   -3.7500   -3.8971    0.0000 C   0  0  0  0  0  0  0  0  0  0  0  0
   -2.2500   -1.2990    0.0000 C   0  0  0  0  0  0  0  0  0  0  0  0
    2.2500   -1.2990    0.0000 C   0  0  0  0  0  0  0  0  0  0  0  0
  1  2  1  0
  2  3  1  0
  2  4  1  0
  4  5  2  0
  5  6  1  0
  6  7  2  0
  7  8  1  0
  8  9  1  0
  9 10  1  0
 10 11  2  0
 11 12  1  0
 12 13  2  0
 13 14  1  0
 14 15  1  0
 15 16  1  0
 15 17  1  0
 14 18  2  0
  9 19  1  0
 19 20  2  0
 20 21  1  0
 21 22  2  0
 22 23  1  0
 23 24  1  0
 24 25  1  0
 24 26  1  0
 23 27  2  0
  8 28  2  0
 28  4  1  0
 18 10  1  0
 27 19  1  0
M  END
>  <linear_selectivity>  (449) 
44

>  <denticity>  (449) 
1

>  <ligand_class>  (449) 
phosphine

$$$$
P(2-iPr-Ph)3_130C_xylene
     RDKit          2D

 28 30  0  0  0  0  0  0  0  0999 V2000
    5.2500   -3.8971    0.0000 C   0  0  0  0  0  0  0  0  0  0  0  0
    4.5000   -2.5981    0.0000 C   0  0  0  0  0  0  0  0  0  0  0  0
    5.2500   -1.2990    0.0000 C   0  0  0  0  0  0  0  0  0  0  0  0
    3.0000   -2.5981    0.0000 C   0  0  0  0  0  0  0  0  0  0  0  0
    2.2500   -3.8971    0.0000 C   0  0  0  0  0  0  0  0  0  0  0  0
    0.7500   -3.8971    0.0000 C   0  0  0  0  0  0  0  0  0  0  0  0
   -0.0000   -2.5981    0.0000 C   0  0  0  0  0  0  0  0  0  0  0  0
    0.7500   -1.2990    0.0000 C   0  0  0  0  0  0  0  0  0  0  0  0
    0.0000    0.0000    0.0000 P   0  0  0  0  0  0  0  0  0  0  0  0
    0.7500    1.2990    0.0000 C   0  0  0  0  0  0  0  0  0  0  0  0
    2.2500    1.2990    0.0000 C   0  0  0  0  0  0  0  0  0  0  0  0
    3.0000    2.5981    0.0000 C   0  0  0  0  0  0  0  0  0  0  0  0
    2.2500    3.8971    0.0000 C   0  0  0  0  0  0  0  0  0  0  0  0
    0.7500    3.8971    0.0000 C   0  0  0  0  0  0  0  0  0  0  0  0
    0.0000    5.1962    0.0000 C   0  0  0  0  0  0  0  0  0  0  0  0
    0.7500    6.4952    0.0000 C   0  0  0  0  0  0  0  0  0  0  0  0
   -1.5000    5.1962    0.0000 C   0  0  0  0  0  0  0  0  0  0  0  0
    0.0000    2.5981    0.0000 C   0  0  0  0  0  0  0  0  0  0  0  0
   -1.5000    0.0000    0.0000 C   0  0  0  0  0  0  0  0  0  0  0  0
   -2.2500    1.2990    0.0000 C   0  0  0  0  0  0  0  0  0  0  0  0
   -3.7500    1.2990    0.0000 C   0  0  0  0  0  0  0  0  0  0  0  0
   -4.5000    0.0000    0.0000 C   0  0  0  0  0  0  0  0  0  0  0  0
   -3.7500   -1.2990    0.0000 C   0  0  0  0  0  0  0  0  0  0  0  0
   -4.5000   -2.5981    0.0000 C   0  0  0  0  0  0  0  0  0  0  0  0
   -6.0000   -2.5981    0.0000 C   0  0  0  0  0  0  0  0  0  0  0  0
   -3.7500   -3.8971    0.0000 C   0  0  0  0  0  0  0  0  0  0  0  0
   -2.2500   -1.2990    0.0000 C   0  0  0  0  0  0  0  0  0  0  0  0
    2.2500   -1.2990    0.0000 C   0  0  0  0  0  0  0  0  0  0  0  0
  1  2  1  0
  2  3  1  0
  2  4  1  0
  4  5  2  0
  5  6  1  0
  6  7  2  0
  7  8  1  0
  8  9  1  0
  9 10  1  0
 10 11  2  0
 11 12  1  0
 12 13  2  0
 13 14  1  0
 14 15  1  0
 15 16  1  0
 15 17  1  0
 14 18  2  0
  9 19  1  0
 19 20  2  0
 20 21  1  0
 21 22  2  0
 22 23  1  0
 23 24  1  0
 24 25  1  0
 24 26  1  0
 23 27  2  0
  8 28  2  0
 28  4  1  0
 18 10  1  0
 27 19  1  0
M  END
>  <linear_selectivity>  (450) 
45

>  <denticity>  (450) 
1

>  <ligand_class>  (450) 
phosphine

$$$$
P(2-tBu-Ph)3
     RDKit          2D

 31 33  0  0  0  0  0  0  0  0999 V2000
    4.5000   -4.0981    0.0000 C   0  0  0  0  0  0  0  0  0  0  0  0
    4.5000   -2.5981    0.0000 C   0  0  0  0  0  0  0  0  0  0  0  0
    4.5000   -1.0981    0.0000 C   0  0  0  0  0  0  0  0  0  0  0  0
    6.0000   -2.5981    0.0000 C   0  0  0  0  0  0  0  0  0  0  0  0
    3.0000   -2.5981    0.0000 C   0  0  0  0  0  0  0  0  0  0  0  0
    2.2500   -3.8971    0.0000 C   0  0  0  0  0  0  0  0  0  0  0  0
    0.7500   -3.8971    0.0000 C   0  0  0  0  0  0  0  0  0  0  0  0
   -0.0000   -2.5981    0.0000 C   0  0  0  0  0  0  0  0  0  0  0  0
    0.7500   -1.2990    0.0000 C   0  0  0  0  0  0  0  0  0  0  0  0
    0.0000    0.0000    0.0000 P   0  0  0  0  0  0  0  0  0  0  0  0
    0.7500    1.2990    0.0000 C   0  0  0  0  0  0  0  0  0  0  0  0
    2.2500    1.2990    0.0000 C   0  0  0  0  0  0  0  0  0  0  0  0
    3.0000    2.5981    0.0000 C   0  0  0  0  0  0  0  0  0  0  0  0
    2.2500    3.8971    0.0000 C   0  0  0  0  0  0  0  0  0  0  0  0
    0.7500    3.8971    0.0000 C   0  0  0  0  0  0  0  0  0  0  0  0
    0.0000    5.1962    0.0000 C   0  0  0  0  0  0  0  0  0  0  0  0
    1.2990    5.9462    0.0000 C   0  0  0  0  0  0  0  0  0  0  0  0
   -1.2990    4.4462    0.0000 C   0  0  0  0  0  0  0  0  0  0  0  0
   -0.7500    6.4952    0.0000 C   0  0  0  0  0  0  0  0  0  0  0  0
    0.0000    2.5981    0.0000 C   0  0  0  0  0  0  0  0  0  0  0  0
   -1.5000    0.0000    0.0000 C   0  0  0  0  0  0  0  0  0  0  0  0
   -2.2500    1.2990    0.0000 C   0  0  0  0  0  0  0  0  0  0  0  0
   -3.7500    1.2990    0.0000 C   0  0  0  0  0  0  0  0  0  0  0  0
   -4.5000    0.0000    0.0000 C   0  0  0  0  0  0  0  0  0  0  0  0
   -3.7500   -1.2990    0.0000 C   0  0  0  0  0  0  0  0  0  0  0  0
   -4.5000   -2.5981    0.0000 C   0  0  0  0  0  0  0  0  0  0  0  0
   -5.7990   -1.8481    0.0000 C   0  0  0  0  0  0  0  0  0  0  0  0
   -3.2010   -3.3481    0.0000 C   0  0  0  0  0  0  0  0  0  0  0  0
   -5.2500   -3.8971    0.0000 C   0  0  0  0  0  0  0  0  0  0  0  0
   -2.2500   -1.2990    0.0000 C   0  0  0  0  0  0  0  0  0  0  0  0
    2.2500   -1.2990    0.0000 C   0  0  0  0  0  0  0  0  0  0  0  0
  1  2  1  0
  2  3  1  0
  2  4  1  0
  2  5  1  0
  5  6  2  0
  6  7  1  0
  7  8  2  0
  8  9  1  0
  9 10  1  0
 10 11  1  0
 11 12  2  0
 12 13  1  0
 13 14  2  0
 14 15  1  0
 15 16  1  0
 16 17  1  0
 16 18  1  0
 16 19  1  0
 15 20  2  0
 10 21  1  0
 21 22  2  0
 22 23  1  0
 23 24  2  0
 24 25  1  0
 25 26  1  0
 26 27  1  0
 26 28  1  0
 26 29  1  0
 25 30  2  0
  9 31  2  0
 31  5  1  0
 20 11  1  0
 30 21  1  0
M  END
>  <linear_selectivity>  (451) 
52

>  <denticity>  (451) 
1

>  <ligand_class>  (451) 
phosphine

$$$$
P(2-tBu-Ph)3_70C_toluene
     RDKit          2D

 31 33  0  0  0  0  0  0  0  0999 V2000
    4.5000   -4.0981    0.0000 C   0  0  0  0  0  0  0  0  0  0  0  0
    4.5000   -2.5981    0.0000 C   0  0  0  0  0  0  0  0  0  0  0  0
    4.5000   -1.0981    0.0000 C   0  0  0  0  0  0  0  0  0  0  0  0
    6.0000   -2.5981    0.0000 C   0  0  0  0  0  0  0  0  0  0  0  0
    3.0000   -2.5981    0.0000 C   0  0  0  0  0  0  0  0  0  0  0  0
    2.2500   -3.8971    0.0000 C   0  0  0  0  0  0  0  0  0  0  0  0
    0.7500   -3.8971    0.0000 C   0  0  0  0  0  0  0  0  0  0  0  0
   -0.0000   -2.5981    0.0000 C   0  0  0  0  0  0  0  0  0  0  0  0
    0.7500   -1.2990    0.0000 C   0  0  0  0  0  0  0  0  0  0  0  0
    0.0000    0.0000    0.0000 P   0  0  0  0  0  0  0  0  0  0  0  0
    0.7500    1.2990    0.0000 C   0  0  0  0  0  0  0  0  0  0  0  0
    2.2500    1.2990    0.0000 C   0  0  0  0  0  0  0  0  0  0  0  0
    3.0000    2.5981    0.0000 C   0  0  0  0  0  0  0  0  0  0  0  0
    2.2500    3.8971    0.0000 C   0  0  0  0  0  0  0  0  0  0  0  0
    0.7500    3.8971    0.0000 C   0  0  0  0  0  0  0  0  0  0  0  0
    0.0000    5.1962    0.0000 C   0  0  0  0  0  0  0  0  0  0  0  0
    1.2990    5.9462    0.0000 C   0  0  0  0  0  0  0  0  0  0  0  0
   -1.2990    4.4462    0.0000 C   0  0  0  0  0  0  0  0  0  0  0  0
   -0.7500    6.4952    0.0000 C   0  0  0  0  0  0  0  0  0  0  0  0
    0.0000    2.5981    0.0000 C   0  0  0  0  0  0  0  0  0  0  0  0
   -1.5000    0.0000    0.0000 C   0  0  0  0  0  0  0  0  0  0  0  0
   -2.2500    1.2990    0.0000 C   0  0  0  0  0  0  0  0  0  0  0  0
   -3.7500    1.2990    0.0000 C   0  0  0  0  0  0  0  0  0  0  0  0
   -4.5000    0.0000    0.0000 C   0  0  0  0  0  0  0  0  0  0  0  0
   -3.7500   -1.2990    0.0000 C   0  0  0  0  0  0  0  0  0  0  0  0
   -4.5000   -2.5981    0.0000 C   0  0  0  0  0  0  0  0  0  0  0  0
   -5.7990   -1.8481    0.0000 C   0  0  0  0  0  0  0  0  0  0  0  0
   -3.2010   -3.3481    0.0000 C   0  0  0  0  0  0  0  0  0  0  0  0
   -5.2500   -3.8971    0.0000 C   0  0  0  0  0  0  0  0  0  0  0  0
   -2.2500   -1.2990    0.0000 C   0  0  0  0  0  0  0  0  0  0  0  0
    2.2500   -1.2990    0.0000 C   0  0  0  0  0  0  0  0  0  0  0  0
  1  2  1  0
  2  3  1  0
  2  4  1  0
  2  5  1  0
  5  6  2  0
  6  7  1  0
  7  8  2  0
  8  9  1  0
  9 10  1  0
 10 11  1  0
 11 12  2  0
 12 13  1  0
 13 14  2  0
 14 15  1  0
 15 16  1  0
 16 17  1  0
 16 18  1  0
 16 19  1  0
 15 20  2  0
 10 21  1  0
 21 22  2  0
 22 23  1  0
 23 24  2  0
 24 25  1  0
 25 26  1  0
 26 27  1  0
 26 28  1  0
 26 29  1  0
 25 30  2  0
  9 31  2  0
 31  5  1  0
 20 11  1  0
 30 21  1  0
M  END
>  <linear_selectivity>  (452) 
57

>  <denticity>  (452) 
1

>  <ligand_class>  (452) 
phosphine

$$$$
P(2-tBu-Ph)3_70C_dioxane
     RDKit          2D

 31 33  0  0  0  0  0  0  0  0999 V2000
    4.5000   -4.0981    0.0000 C   0  0  0  0  0  0  0  0  0  0  0  0
    4.5000   -2.5981    0.0000 C   0  0  0  0  0  0  0  0  0  0  0  0
    4.5000   -1.0981    0.0000 C   0  0  0  0  0  0  0  0  0  0  0  0
    6.0000   -2.5981    0.0000 C   0  0  0  0  0  0  0  0  0  0  0  0
    3.0000   -2.5981    0.0000 C   0  0  0  0  0  0  0  0  0  0  0  0
    2.2500   -3.8971    0.0000 C   0  0  0  0  0  0  0  0  0  0  0  0
    0.7500   -3.8971    0.0000 C   0  0  0  0  0  0  0  0  0  0  0  0
   -0.0000   -2.5981    0.0000 C   0  0  0  0  0  0  0  0  0  0  0  0
    0.7500   -1.2990    0.0000 C   0  0  0  0  0  0  0  0  0  0  0  0
    0.0000    0.0000    0.0000 P   0  0  0  0  0  0  0  0  0  0  0  0
    0.7500    1.2990    0.0000 C   0  0  0  0  0  0  0  0  0  0  0  0
    2.2500    1.2990    0.0000 C   0  0  0  0  0  0  0  0  0  0  0  0
    3.0000    2.5981    0.0000 C   0  0  0  0  0  0  0  0  0  0  0  0
    2.2500    3.8971    0.0000 C   0  0  0  0  0  0  0  0  0  0  0  0
    0.7500    3.8971    0.0000 C   0  0  0  0  0  0  0  0  0  0  0  0
    0.0000    5.1962    0.0000 C   0  0  0  0  0  0  0  0  0  0  0  0
    1.2990    5.9462    0.0000 C   0  0  0  0  0  0  0  0  0  0  0  0
   -1.2990    4.4462    0.0000 C   0  0  0  0  0  0  0  0  0  0  0  0
   -0.7500    6.4952    0.0000 C   0  0  0  0  0  0  0  0  0  0  0  0
    0.0000    2.5981    0.0000 C   0  0  0  0  0  0  0  0  0  0  0  0
   -1.5000    0.0000    0.0000 C   0  0  0  0  0  0  0  0  0  0  0  0
   -2.2500    1.2990    0.0000 C   0  0  0  0  0  0  0  0  0  0  0  0
   -3.7500    1.2990    0.0000 C   0  0  0  0  0  0  0  0  0  0  0  0
   -4.5000    0.0000    0.0000 C   0  0  0  0  0  0  0  0  0  0  0  0
   -3.7500   -1.2990    0.0000 C   0  0  0  0  0  0  0  0  0  0  0  0
   -4.5000   -2.5981    0.0000 C   0  0  0  0  0  0  0  0  0  0  0  0
   -5.7990   -1.8481    0.0000 C   0  0  0  0  0  0  0  0  0  0  0  0
   -3.2010   -3.3481    0.0000 C   0  0  0  0  0  0  0  0  0  0  0  0
   -5.2500   -3.8971    0.0000 C   0  0  0  0  0  0  0  0  0  0  0  0
   -2.2500   -1.2990    0.0000 C   0  0  0  0  0  0  0  0  0  0  0  0
    2.2500   -1.2990    0.0000 C   0  0  0  0  0  0  0  0  0  0  0  0
  1  2  1  0
  2  3  1  0
  2  4  1  0
  2  5  1  0
  5  6  2  0
  6  7  1  0
  7  8  2  0
  8  9  1  0
  9 10  1  0
 10 11  1  0
 11 12  2  0
 12 13  1  0
 13 14  2  0
 14 15  1  0
 15 16  1  0
 16 17  1  0
 16 18  1  0
 16 19  1  0
 15 20  2  0
 10 21  1  0
 21 22  2  0
 22 23  1  0
 23 24  2  0
 24 25  1  0
 25 26  1  0
 26 27  1  0
 26 28  1  0
 26 29  1  0
 25 30  2  0
  9 31  2  0
 31  5  1  0
 20 11  1  0
 30 21  1  0
M  END
>  <linear_selectivity>  (453) 
54

>  <denticity>  (453) 
1

>  <ligand_class>  (453) 
phosphine

$$$$
P(2-tBu-Ph)3_70C_benzene
     RDKit          2D

 31 33  0  0  0  0  0  0  0  0999 V2000
    4.5000   -4.0981    0.0000 C   0  0  0  0  0  0  0  0  0  0  0  0
    4.5000   -2.5981    0.0000 C   0  0  0  0  0  0  0  0  0  0  0  0
    4.5000   -1.0981    0.0000 C   0  0  0  0  0  0  0  0  0  0  0  0
    6.0000   -2.5981    0.0000 C   0  0  0  0  0  0  0  0  0  0  0  0
    3.0000   -2.5981    0.0000 C   0  0  0  0  0  0  0  0  0  0  0  0
    2.2500   -3.8971    0.0000 C   0  0  0  0  0  0  0  0  0  0  0  0
    0.7500   -3.8971    0.0000 C   0  0  0  0  0  0  0  0  0  0  0  0
   -0.0000   -2.5981    0.0000 C   0  0  0  0  0  0  0  0  0  0  0  0
    0.7500   -1.2990    0.0000 C   0  0  0  0  0  0  0  0  0  0  0  0
    0.0000    0.0000    0.0000 P   0  0  0  0  0  0  0  0  0  0  0  0
    0.7500    1.2990    0.0000 C   0  0  0  0  0  0  0  0  0  0  0  0
    2.2500    1.2990    0.0000 C   0  0  0  0  0  0  0  0  0  0  0  0
    3.0000    2.5981    0.0000 C   0  0  0  0  0  0  0  0  0  0  0  0
    2.2500    3.8971    0.0000 C   0  0  0  0  0  0  0  0  0  0  0  0
    0.7500    3.8971    0.0000 C   0  0  0  0  0  0  0  0  0  0  0  0
    0.0000    5.1962    0.0000 C   0  0  0  0  0  0  0  0  0  0  0  0
    1.2990    5.9462    0.0000 C   0  0  0  0  0  0  0  0  0  0  0  0
   -1.2990    4.4462    0.0000 C   0  0  0  0  0  0  0  0  0  0  0  0
   -0.7500    6.4952    0.0000 C   0  0  0  0  0  0  0  0  0  0  0  0
    0.0000    2.5981    0.0000 C   0  0  0  0  0  0  0  0  0  0  0  0
   -1.5000    0.0000    0.0000 C   0  0  0  0  0  0  0  0  0  0  0  0
   -2.2500    1.2990    0.0000 C   0  0  0  0  0  0  0  0  0  0  0  0
   -3.7500    1.2990    0.0000 C   0  0  0  0  0  0  0  0  0  0  0  0
   -4.5000    0.0000    0.0000 C   0  0  0  0  0  0  0  0  0  0  0  0
   -3.7500   -1.2990    0.0000 C   0  0  0  0  0  0  0  0  0  0  0  0
   -4.5000   -2.5981    0.0000 C   0  0  0  0  0  0  0  0  0  0  0  0
   -5.7990   -1.8481    0.0000 C   0  0  0  0  0  0  0  0  0  0  0  0
   -3.2010   -3.3481    0.0000 C   0  0  0  0  0  0  0  0  0  0  0  0
   -5.2500   -3.8971    0.0000 C   0  0  0  0  0  0  0  0  0  0  0  0
   -2.2500   -1.2990    0.0000 C   0  0  0  0  0  0  0  0  0  0  0  0
    2.2500   -1.2990    0.0000 C   0  0  0  0  0  0  0  0  0  0  0  0
  1  2  1  0
  2  3  1  0
  2  4  1  0
  2  5  1  0
  5  6  2  0
  6  7  1  0
  7  8  2  0
  8  9  1  0
  9 10  1  0
 10 11  1  0
 11 12  2  0
 12 13  1  0
 13 14  2  0
 14 15  1  0
 15 16  1  0
 16 17  1  0
 16 18  1  0
 16 19  1  0
 15 20  2  0
 10 21  1  0
 21 22  2  0
 22 23  1  0
 23 24  2  0
 24 25  1  0
 25 26  1  0
 26 27  1  0
 26 28  1  0
 26 29  1  0
 25 30  2  0
  9 31  2  0
 31  5  1  0
 20 11  1  0
 30 21  1  0
M  END
>  <linear_selectivity>  (454) 
60

>  <denticity>  (454) 
1

>  <ligand_class>  (454) 
phosphine

$$$$
P(2-tBu-Ph)3_70C_xylene
     RDKit          2D

 31 33  0  0  0  0  0  0  0  0999 V2000
    4.5000   -4.0981    0.0000 C   0  0  0  0  0  0  0  0  0  0  0  0
    4.5000   -2.5981    0.0000 C   0  0  0  0  0  0  0  0  0  0  0  0
    4.5000   -1.0981    0.0000 C   0  0  0  0  0  0  0  0  0  0  0  0
    6.0000   -2.5981    0.0000 C   0  0  0  0  0  0  0  0  0  0  0  0
    3.0000   -2.5981    0.0000 C   0  0  0  0  0  0  0  0  0  0  0  0
    2.2500   -3.8971    0.0000 C   0  0  0  0  0  0  0  0  0  0  0  0
    0.7500   -3.8971    0.0000 C   0  0  0  0  0  0  0  0  0  0  0  0
   -0.0000   -2.5981    0.0000 C   0  0  0  0  0  0  0  0  0  0  0  0
    0.7500   -1.2990    0.0000 C   0  0  0  0  0  0  0  0  0  0  0  0
    0.0000    0.0000    0.0000 P   0  0  0  0  0  0  0  0  0  0  0  0
    0.7500    1.2990    0.0000 C   0  0  0  0  0  0  0  0  0  0  0  0
    2.2500    1.2990    0.0000 C   0  0  0  0  0  0  0  0  0  0  0  0
    3.0000    2.5981    0.0000 C   0  0  0  0  0  0  0  0  0  0  0  0
    2.2500    3.8971    0.0000 C   0  0  0  0  0  0  0  0  0  0  0  0
    0.7500    3.8971    0.0000 C   0  0  0  0  0  0  0  0  0  0  0  0
    0.0000    5.1962    0.0000 C   0  0  0  0  0  0  0  0  0  0  0  0
    1.2990    5.9462    0.0000 C   0  0  0  0  0  0  0  0  0  0  0  0
   -1.2990    4.4462    0.0000 C   0  0  0  0  0  0  0  0  0  0  0  0
   -0.7500    6.4952    0.0000 C   0  0  0  0  0  0  0  0  0  0  0  0
    0.0000    2.5981    0.0000 C   0  0  0  0  0  0  0  0  0  0  0  0
   -1.5000    0.0000    0.0000 C   0  0  0  0  0  0  0  0  0  0  0  0
   -2.2500    1.2990    0.0000 C   0  0  0  0  0  0  0  0  0  0  0  0
   -3.7500    1.2990    0.0000 C   0  0  0  0  0  0  0  0  0  0  0  0
   -4.5000    0.0000    0.0000 C   0  0  0  0  0  0  0  0  0  0  0  0
   -3.7500   -1.2990    0.0000 C   0  0  0  0  0  0  0  0  0  0  0  0
   -4.5000   -2.5981    0.0000 C   0  0  0  0  0  0  0  0  0  0  0  0
   -5.7990   -1.8481    0.0000 C   0  0  0  0  0  0  0  0  0  0  0  0
   -3.2010   -3.3481    0.0000 C   0  0  0  0  0  0  0  0  0  0  0  0
   -5.2500   -3.8971    0.0000 C   0  0  0  0  0  0  0  0  0  0  0  0
   -2.2500   -1.2990    0.0000 C   0  0  0  0  0  0  0  0  0  0  0  0
    2.2500   -1.2990    0.0000 C   0  0  0  0  0  0  0  0  0  0  0  0
  1  2  1  0
  2  3  1  0
  2  4  1  0
  2  5  1  0
  5  6  2  0
  6  7  1  0
  7  8  2  0
  8  9  1  0
  9 10  1  0
 10 11  1  0
 11 12  2  0
 12 13  1  0
 13 14  2  0
 14 15  1  0
 15 16  1  0
 16 17  1  0
 16 18  1  0
 16 19  1  0
 15 20  2  0
 10 21  1  0
 21 22  2  0
 22 23  1  0
 23 24  2  0
 24 25  1  0
 25 26  1  0
 26 27  1  0
 26 28  1  0
 26 29  1  0
 25 30  2  0
  9 31  2  0
 31  5  1  0
 20 11  1  0
 30 21  1  0
M  END
>  <linear_selectivity>  (455) 
58

>  <denticity>  (455) 
1

>  <ligand_class>  (455) 
phosphine

$$$$
P(2-tBu-Ph)3_80C_toluene
     RDKit          2D

 31 33  0  0  0  0  0  0  0  0999 V2000
    4.5000   -4.0981    0.0000 C   0  0  0  0  0  0  0  0  0  0  0  0
    4.5000   -2.5981    0.0000 C   0  0  0  0  0  0  0  0  0  0  0  0
    4.5000   -1.0981    0.0000 C   0  0  0  0  0  0  0  0  0  0  0  0
    6.0000   -2.5981    0.0000 C   0  0  0  0  0  0  0  0  0  0  0  0
    3.0000   -2.5981    0.0000 C   0  0  0  0  0  0  0  0  0  0  0  0
    2.2500   -3.8971    0.0000 C   0  0  0  0  0  0  0  0  0  0  0  0
    0.7500   -3.8971    0.0000 C   0  0  0  0  0  0  0  0  0  0  0  0
   -0.0000   -2.5981    0.0000 C   0  0  0  0  0  0  0  0  0  0  0  0
    0.7500   -1.2990    0.0000 C   0  0  0  0  0  0  0  0  0  0  0  0
    0.0000    0.0000    0.0000 P   0  0  0  0  0  0  0  0  0  0  0  0
    0.7500    1.2990    0.0000 C   0  0  0  0  0  0  0  0  0  0  0  0
    2.2500    1.2990    0.0000 C   0  0  0  0  0  0  0  0  0  0  0  0
    3.0000    2.5981    0.0000 C   0  0  0  0  0  0  0  0  0  0  0  0
    2.2500    3.8971    0.0000 C   0  0  0  0  0  0  0  0  0  0  0  0
    0.7500    3.8971    0.0000 C   0  0  0  0  0  0  0  0  0  0  0  0
    0.0000    5.1962    0.0000 C   0  0  0  0  0  0  0  0  0  0  0  0
    1.2990    5.9462    0.0000 C   0  0  0  0  0  0  0  0  0  0  0  0
   -1.2990    4.4462    0.0000 C   0  0  0  0  0  0  0  0  0  0  0  0
   -0.7500    6.4952    0.0000 C   0  0  0  0  0  0  0  0  0  0  0  0
    0.0000    2.5981    0.0000 C   0  0  0  0  0  0  0  0  0  0  0  0
   -1.5000    0.0000    0.0000 C   0  0  0  0  0  0  0  0  0  0  0  0
   -2.2500    1.2990    0.0000 C   0  0  0  0  0  0  0  0  0  0  0  0
   -3.7500    1.2990    0.0000 C   0  0  0  0  0  0  0  0  0  0  0  0
   -4.5000    0.0000    0.0000 C   0  0  0  0  0  0  0  0  0  0  0  0
   -3.7500   -1.2990    0.0000 C   0  0  0  0  0  0  0  0  0  0  0  0
   -4.5000   -2.5981    0.0000 C   0  0  0  0  0  0  0  0  0  0  0  0
   -5.7990   -1.8481    0.0000 C   0  0  0  0  0  0  0  0  0  0  0  0
   -3.2010   -3.3481    0.0000 C   0  0  0  0  0  0  0  0  0  0  0  0
   -5.2500   -3.8971    0.0000 C   0  0  0  0  0  0  0  0  0  0  0  0
   -2.2500   -1.2990    0.0000 C   0  0  0  0  0  0  0  0  0  0  0  0
    2.2500   -1.2990    0.0000 C   0  0  0  0  0  0  0  0  0  0  0  0
  1  2  1  0
  2  3  1  0
  2  4  1  0
  2  5  1  0
  5  6  2  0
  6  7  1  0
  7  8  2  0
  8  9  1  0
  9 10  1  0
 10 11  1  0
 11 12  2  0
 12 13  1  0
 13 14  2  0
 14 15  1  0
 15 16  1  0
 16 17  1  0
 16 18  1  0
 16 19  1  0
 15 20  2  0
 10 21  1  0
 21 22  2  0
 22 23  1  0
 23 24  2  0
 24 25  1  0
 25 26  1  0
 26 27  1  0
 26 28  1  0
 26 29  1  0
 25 30  2  0
  9 31  2  0
 31  5  1  0
 20 11  1  0
 30 21  1  0
M  END
>  <linear_selectivity>  (456) 
57

>  <denticity>  (456) 
1

>  <ligand_class>  (456) 
phosphine

$$$$
P(2-tBu-Ph)3_80C_THF
     RDKit          2D

 31 33  0  0  0  0  0  0  0  0999 V2000
    4.5000   -4.0981    0.0000 C   0  0  0  0  0  0  0  0  0  0  0  0
    4.5000   -2.5981    0.0000 C   0  0  0  0  0  0  0  0  0  0  0  0
    4.5000   -1.0981    0.0000 C   0  0  0  0  0  0  0  0  0  0  0  0
    6.0000   -2.5981    0.0000 C   0  0  0  0  0  0  0  0  0  0  0  0
    3.0000   -2.5981    0.0000 C   0  0  0  0  0  0  0  0  0  0  0  0
    2.2500   -3.8971    0.0000 C   0  0  0  0  0  0  0  0  0  0  0  0
    0.7500   -3.8971    0.0000 C   0  0  0  0  0  0  0  0  0  0  0  0
   -0.0000   -2.5981    0.0000 C   0  0  0  0  0  0  0  0  0  0  0  0
    0.7500   -1.2990    0.0000 C   0  0  0  0  0  0  0  0  0  0  0  0
    0.0000    0.0000    0.0000 P   0  0  0  0  0  0  0  0  0  0  0  0
    0.7500    1.2990    0.0000 C   0  0  0  0  0  0  0  0  0  0  0  0
    2.2500    1.2990    0.0000 C   0  0  0  0  0  0  0  0  0  0  0  0
    3.0000    2.5981    0.0000 C   0  0  0  0  0  0  0  0  0  0  0  0
    2.2500    3.8971    0.0000 C   0  0  0  0  0  0  0  0  0  0  0  0
    0.7500    3.8971    0.0000 C   0  0  0  0  0  0  0  0  0  0  0  0
    0.0000    5.1962    0.0000 C   0  0  0  0  0  0  0  0  0  0  0  0
    1.2990    5.9462    0.0000 C   0  0  0  0  0  0  0  0  0  0  0  0
   -1.2990    4.4462    0.0000 C   0  0  0  0  0  0  0  0  0  0  0  0
   -0.7500    6.4952    0.0000 C   0  0  0  0  0  0  0  0  0  0  0  0
    0.0000    2.5981    0.0000 C   0  0  0  0  0  0  0  0  0  0  0  0
   -1.5000    0.0000    0.0000 C   0  0  0  0  0  0  0  0  0  0  0  0
   -2.2500    1.2990    0.0000 C   0  0  0  0  0  0  0  0  0  0  0  0
   -3.7500    1.2990    0.0000 C   0  0  0  0  0  0  0  0  0  0  0  0
   -4.5000    0.0000    0.0000 C   0  0  0  0  0  0  0  0  0  0  0  0
   -3.7500   -1.2990    0.0000 C   0  0  0  0  0  0  0  0  0  0  0  0
   -4.5000   -2.5981    0.0000 C   0  0  0  0  0  0  0  0  0  0  0  0
   -5.7990   -1.8481    0.0000 C   0  0  0  0  0  0  0  0  0  0  0  0
   -3.2010   -3.3481    0.0000 C   0  0  0  0  0  0  0  0  0  0  0  0
   -5.2500   -3.8971    0.0000 C   0  0  0  0  0  0  0  0  0  0  0  0
   -2.2500   -1.2990    0.0000 C   0  0  0  0  0  0  0  0  0  0  0  0
    2.2500   -1.2990    0.0000 C   0  0  0  0  0  0  0  0  0  0  0  0
  1  2  1  0
  2  3  1  0
  2  4  1  0
  2  5  1  0
  5  6  2  0
  6  7  1  0
  7  8  2  0
  8  9  1  0
  9 10  1  0
 10 11  1  0
 11 12  2  0
 12 13  1  0
 13 14  2  0
 14 15  1  0
 15 16  1  0
 16 17  1  0
 16 18  1  0
 16 19  1  0
 15 20  2  0
 10 21  1  0
 21 22  2  0
 22 23  1  0
 23 24  2  0
 24 25  1  0
 25 26  1  0
 26 27  1  0
 26 28  1  0
 26 29  1  0
 25 30  2  0
  9 31  2  0
 31  5  1  0
 20 11  1  0
 30 21  1  0
M  END
>  <linear_selectivity>  (457) 
56

>  <denticity>  (457) 
1

>  <ligand_class>  (457) 
phosphine

$$$$
P(2-tBu-Ph)3_80C_dioxane
     RDKit          2D

 31 33  0  0  0  0  0  0  0  0999 V2000
    4.5000   -4.0981    0.0000 C   0  0  0  0  0  0  0  0  0  0  0  0
    4.5000   -2.5981    0.0000 C   0  0  0  0  0  0  0  0  0  0  0  0
    4.5000   -1.0981    0.0000 C   0  0  0  0  0  0  0  0  0  0  0  0
    6.0000   -2.5981    0.0000 C   0  0  0  0  0  0  0  0  0  0  0  0
    3.0000   -2.5981    0.0000 C   0  0  0  0  0  0  0  0  0  0  0  0
    2.2500   -3.8971    0.0000 C   0  0  0  0  0  0  0  0  0  0  0  0
    0.7500   -3.8971    0.0000 C   0  0  0  0  0  0  0  0  0  0  0  0
   -0.0000   -2.5981    0.0000 C   0  0  0  0  0  0  0  0  0  0  0  0
    0.7500   -1.2990    0.0000 C   0  0  0  0  0  0  0  0  0  0  0  0
    0.0000    0.0000    0.0000 P   0  0  0  0  0  0  0  0  0  0  0  0
    0.7500    1.2990    0.0000 C   0  0  0  0  0  0  0  0  0  0  0  0
    2.2500    1.2990    0.0000 C   0  0  0  0  0  0  0  0  0  0  0  0
    3.0000    2.5981    0.0000 C   0  0  0  0  0  0  0  0  0  0  0  0
    2.2500    3.8971    0.0000 C   0  0  0  0  0  0  0  0  0  0  0  0
    0.7500    3.8971    0.0000 C   0  0  0  0  0  0  0  0  0  0  0  0
    0.0000    5.1962    0.0000 C   0  0  0  0  0  0  0  0  0  0  0  0
    1.2990    5.9462    0.0000 C   0  0  0  0  0  0  0  0  0  0  0  0
   -1.2990    4.4462    0.0000 C   0  0  0  0  0  0  0  0  0  0  0  0
   -0.7500    6.4952    0.0000 C   0  0  0  0  0  0  0  0  0  0  0  0
    0.0000    2.5981    0.0000 C   0  0  0  0  0  0  0  0  0  0  0  0
   -1.5000    0.0000    0.0000 C   0  0  0  0  0  0  0  0  0  0  0  0
   -2.2500    1.2990    0.0000 C   0  0  0  0  0  0  0  0  0  0  0  0
   -3.7500    1.2990    0.0000 C   0  0  0  0  0  0  0  0  0  0  0  0
   -4.5000    0.0000    0.0000 C   0  0  0  0  0  0  0  0  0  0  0  0
   -3.7500   -1.2990    0.0000 C   0  0  0  0  0  0  0  0  0  0  0  0
   -4.5000   -2.5981    0.0000 C   0  0  0  0  0  0  0  0  0  0  0  0
   -5.7990   -1.8481    0.0000 C   0  0  0  0  0  0  0  0  0  0  0  0
   -3.2010   -3.3481    0.0000 C   0  0  0  0  0  0  0  0  0  0  0  0
   -5.2500   -3.8971    0.0000 C   0  0  0  0  0  0  0  0  0  0  0  0
   -2.2500   -1.2990    0.0000 C   0  0  0  0  0  0  0  0  0  0  0  0
    2.2500   -1.2990    0.0000 C   0  0  0  0  0  0  0  0  0  0  0  0
  1  2  1  0
  2  3  1  0
  2  4  1  0
  2  5  1  0
  5  6  2  0
  6  7  1  0
  7  8  2  0
  8  9  1  0
  9 10  1  0
 10 11  1  0
 11 12  2  0
 12 13  1  0
 13 14  2  0
 14 15  1  0
 15 16  1  0
 16 17  1  0
 16 18  1  0
 16 19  1  0
 15 20  2  0
 10 21  1  0
 21 22  2  0
 22 23  1  0
 23 24  2  0
 24 25  1  0
 25 26  1  0
 26 27  1  0
 26 28  1  0
 26 29  1  0
 25 30  2  0
  9 31  2  0
 31  5  1  0
 20 11  1  0
 30 21  1  0
M  END
>  <linear_selectivity>  (458) 
57

>  <denticity>  (458) 
1

>  <ligand_class>  (458) 
phosphine

$$$$
P(2-tBu-Ph)3_80C_hexane
     RDKit          2D

 31 33  0  0  0  0  0  0  0  0999 V2000
    4.5000   -4.0981    0.0000 C   0  0  0  0  0  0  0  0  0  0  0  0
    4.5000   -2.5981    0.0000 C   0  0  0  0  0  0  0  0  0  0  0  0
    4.5000   -1.0981    0.0000 C   0  0  0  0  0  0  0  0  0  0  0  0
    6.0000   -2.5981    0.0000 C   0  0  0  0  0  0  0  0  0  0  0  0
    3.0000   -2.5981    0.0000 C   0  0  0  0  0  0  0  0  0  0  0  0
    2.2500   -3.8971    0.0000 C   0  0  0  0  0  0  0  0  0  0  0  0
    0.7500   -3.8971    0.0000 C   0  0  0  0  0  0  0  0  0  0  0  0
   -0.0000   -2.5981    0.0000 C   0  0  0  0  0  0  0  0  0  0  0  0
    0.7500   -1.2990    0.0000 C   0  0  0  0  0  0  0  0  0  0  0  0
    0.0000    0.0000    0.0000 P   0  0  0  0  0  0  0  0  0  0  0  0
    0.7500    1.2990    0.0000 C   0  0  0  0  0  0  0  0  0  0  0  0
    2.2500    1.2990    0.0000 C   0  0  0  0  0  0  0  0  0  0  0  0
    3.0000    2.5981    0.0000 C   0  0  0  0  0  0  0  0  0  0  0  0
    2.2500    3.8971    0.0000 C   0  0  0  0  0  0  0  0  0  0  0  0
    0.7500    3.8971    0.0000 C   0  0  0  0  0  0  0  0  0  0  0  0
    0.0000    5.1962    0.0000 C   0  0  0  0  0  0  0  0  0  0  0  0
    1.2990    5.9462    0.0000 C   0  0  0  0  0  0  0  0  0  0  0  0
   -1.2990    4.4462    0.0000 C   0  0  0  0  0  0  0  0  0  0  0  0
   -0.7500    6.4952    0.0000 C   0  0  0  0  0  0  0  0  0  0  0  0
    0.0000    2.5981    0.0000 C   0  0  0  0  0  0  0  0  0  0  0  0
   -1.5000    0.0000    0.0000 C   0  0  0  0  0  0  0  0  0  0  0  0
   -2.2500    1.2990    0.0000 C   0  0  0  0  0  0  0  0  0  0  0  0
   -3.7500    1.2990    0.0000 C   0  0  0  0  0  0  0  0  0  0  0  0
   -4.5000    0.0000    0.0000 C   0  0  0  0  0  0  0  0  0  0  0  0
   -3.7500   -1.2990    0.0000 C   0  0  0  0  0  0  0  0  0  0  0  0
   -4.5000   -2.5981    0.0000 C   0  0  0  0  0  0  0  0  0  0  0  0
   -5.7990   -1.8481    0.0000 C   0  0  0  0  0  0  0  0  0  0  0  0
   -3.2010   -3.3481    0.0000 C   0  0  0  0  0  0  0  0  0  0  0  0
   -5.2500   -3.8971    0.0000 C   0  0  0  0  0  0  0  0  0  0  0  0
   -2.2500   -1.2990    0.0000 C   0  0  0  0  0  0  0  0  0  0  0  0
    2.2500   -1.2990    0.0000 C   0  0  0  0  0  0  0  0  0  0  0  0
  1  2  1  0
  2  3  1  0
  2  4  1  0
  2  5  1  0
  5  6  2  0
  6  7  1  0
  7  8  2  0
  8  9  1  0
  9 10  1  0
 10 11  1  0
 11 12  2  0
 12 13  1  0
 13 14  2  0
 14 15  1  0
 15 16  1  0
 16 17  1  0
 16 18  1  0
 16 19  1  0
 15 20  2  0
 10 21  1  0
 21 22  2  0
 22 23  1  0
 23 24  2  0
 24 25  1  0
 25 26  1  0
 26 27  1  0
 26 28  1  0
 26 29  1  0
 25 30  2  0
  9 31  2  0
 31  5  1  0
 20 11  1  0
 30 21  1  0
M  END
>  <linear_selectivity>  (459) 
55

>  <denticity>  (459) 
1

>  <ligand_class>  (459) 
phosphine

$$$$
P(2-tBu-Ph)3_90C_toluene
     RDKit          2D

 31 33  0  0  0  0  0  0  0  0999 V2000
    4.5000   -4.0981    0.0000 C   0  0  0  0  0  0  0  0  0  0  0  0
    4.5000   -2.5981    0.0000 C   0  0  0  0  0  0  0  0  0  0  0  0
    4.5000   -1.0981    0.0000 C   0  0  0  0  0  0  0  0  0  0  0  0
    6.0000   -2.5981    0.0000 C   0  0  0  0  0  0  0  0  0  0  0  0
    3.0000   -2.5981    0.0000 C   0  0  0  0  0  0  0  0  0  0  0  0
    2.2500   -3.8971    0.0000 C   0  0  0  0  0  0  0  0  0  0  0  0
    0.7500   -3.8971    0.0000 C   0  0  0  0  0  0  0  0  0  0  0  0
   -0.0000   -2.5981    0.0000 C   0  0  0  0  0  0  0  0  0  0  0  0
    0.7500   -1.2990    0.0000 C   0  0  0  0  0  0  0  0  0  0  0  0
    0.0000    0.0000    0.0000 P   0  0  0  0  0  0  0  0  0  0  0  0
    0.7500    1.2990    0.0000 C   0  0  0  0  0  0  0  0  0  0  0  0
    2.2500    1.2990    0.0000 C   0  0  0  0  0  0  0  0  0  0  0  0
    3.0000    2.5981    0.0000 C   0  0  0  0  0  0  0  0  0  0  0  0
    2.2500    3.8971    0.0000 C   0  0  0  0  0  0  0  0  0  0  0  0
    0.7500    3.8971    0.0000 C   0  0  0  0  0  0  0  0  0  0  0  0
    0.0000    5.1962    0.0000 C   0  0  0  0  0  0  0  0  0  0  0  0
    1.2990    5.9462    0.0000 C   0  0  0  0  0  0  0  0  0  0  0  0
   -1.2990    4.4462    0.0000 C   0  0  0  0  0  0  0  0  0  0  0  0
   -0.7500    6.4952    0.0000 C   0  0  0  0  0  0  0  0  0  0  0  0
    0.0000    2.5981    0.0000 C   0  0  0  0  0  0  0  0  0  0  0  0
   -1.5000    0.0000    0.0000 C   0  0  0  0  0  0  0  0  0  0  0  0
   -2.2500    1.2990    0.0000 C   0  0  0  0  0  0  0  0  0  0  0  0
   -3.7500    1.2990    0.0000 C   0  0  0  0  0  0  0  0  0  0  0  0
   -4.5000    0.0000    0.0000 C   0  0  0  0  0  0  0  0  0  0  0  0
   -3.7500   -1.2990    0.0000 C   0  0  0  0  0  0  0  0  0  0  0  0
   -4.5000   -2.5981    0.0000 C   0  0  0  0  0  0  0  0  0  0  0  0
   -5.7990   -1.8481    0.0000 C   0  0  0  0  0  0  0  0  0  0  0  0
   -3.2010   -3.3481    0.0000 C   0  0  0  0  0  0  0  0  0  0  0  0
   -5.2500   -3.8971    0.0000 C   0  0  0  0  0  0  0  0  0  0  0  0
   -2.2500   -1.2990    0.0000 C   0  0  0  0  0  0  0  0  0  0  0  0
    2.2500   -1.2990    0.0000 C   0  0  0  0  0  0  0  0  0  0  0  0
  1  2  1  0
  2  3  1  0
  2  4  1  0
  2  5  1  0
  5  6  2  0
  6  7  1  0
  7  8  2  0
  8  9  1  0
  9 10  1  0
 10 11  1  0
 11 12  2  0
 12 13  1  0
 13 14  2  0
 14 15  1  0
 15 16  1  0
 16 17  1  0
 16 18  1  0
 16 19  1  0
 15 20  2  0
 10 21  1  0
 21 22  2  0
 22 23  1  0
 23 24  2  0
 24 25  1  0
 25 26  1  0
 26 27  1  0
 26 28  1  0
 26 29  1  0
 25 30  2  0
  9 31  2  0
 31  5  1  0
 20 11  1  0
 30 21  1  0
M  END
>  <linear_selectivity>  (460) 
54

>  <denticity>  (460) 
1

>  <ligand_class>  (460) 
phosphine

$$$$
P(2-tBu-Ph)3_90C_THF
     RDKit          2D

 31 33  0  0  0  0  0  0  0  0999 V2000
    4.5000   -4.0981    0.0000 C   0  0  0  0  0  0  0  0  0  0  0  0
    4.5000   -2.5981    0.0000 C   0  0  0  0  0  0  0  0  0  0  0  0
    4.5000   -1.0981    0.0000 C   0  0  0  0  0  0  0  0  0  0  0  0
    6.0000   -2.5981    0.0000 C   0  0  0  0  0  0  0  0  0  0  0  0
    3.0000   -2.5981    0.0000 C   0  0  0  0  0  0  0  0  0  0  0  0
    2.2500   -3.8971    0.0000 C   0  0  0  0  0  0  0  0  0  0  0  0
    0.7500   -3.8971    0.0000 C   0  0  0  0  0  0  0  0  0  0  0  0
   -0.0000   -2.5981    0.0000 C   0  0  0  0  0  0  0  0  0  0  0  0
    0.7500   -1.2990    0.0000 C   0  0  0  0  0  0  0  0  0  0  0  0
    0.0000    0.0000    0.0000 P   0  0  0  0  0  0  0  0  0  0  0  0
    0.7500    1.2990    0.0000 C   0  0  0  0  0  0  0  0  0  0  0  0
    2.2500    1.2990    0.0000 C   0  0  0  0  0  0  0  0  0  0  0  0
    3.0000    2.5981    0.0000 C   0  0  0  0  0  0  0  0  0  0  0  0
    2.2500    3.8971    0.0000 C   0  0  0  0  0  0  0  0  0  0  0  0
    0.7500    3.8971    0.0000 C   0  0  0  0  0  0  0  0  0  0  0  0
    0.0000    5.1962    0.0000 C   0  0  0  0  0  0  0  0  0  0  0  0
    1.2990    5.9462    0.0000 C   0  0  0  0  0  0  0  0  0  0  0  0
   -1.2990    4.4462    0.0000 C   0  0  0  0  0  0  0  0  0  0  0  0
   -0.7500    6.4952    0.0000 C   0  0  0  0  0  0  0  0  0  0  0  0
    0.0000    2.5981    0.0000 C   0  0  0  0  0  0  0  0  0  0  0  0
   -1.5000    0.0000    0.0000 C   0  0  0  0  0  0  0  0  0  0  0  0
   -2.2500    1.2990    0.0000 C   0  0  0  0  0  0  0  0  0  0  0  0
   -3.7500    1.2990    0.0000 C   0  0  0  0  0  0  0  0  0  0  0  0
   -4.5000    0.0000    0.0000 C   0  0  0  0  0  0  0  0  0  0  0  0
   -3.7500   -1.2990    0.0000 C   0  0  0  0  0  0  0  0  0  0  0  0
   -4.5000   -2.5981    0.0000 C   0  0  0  0  0  0  0  0  0  0  0  0
   -5.7990   -1.8481    0.0000 C   0  0  0  0  0  0  0  0  0  0  0  0
   -3.2010   -3.3481    0.0000 C   0  0  0  0  0  0  0  0  0  0  0  0
   -5.2500   -3.8971    0.0000 C   0  0  0  0  0  0  0  0  0  0  0  0
   -2.2500   -1.2990    0.0000 C   0  0  0  0  0  0  0  0  0  0  0  0
    2.2500   -1.2990    0.0000 C   0  0  0  0  0  0  0  0  0  0  0  0
  1  2  1  0
  2  3  1  0
  2  4  1  0
  2  5  1  0
  5  6  2  0
  6  7  1  0
  7  8  2  0
  8  9  1  0
  9 10  1  0
 10 11  1  0
 11 12  2  0
 12 13  1  0
 13 14  2  0
 14 15  1  0
 15 16  1  0
 16 17  1  0
 16 18  1  0
 16 19  1  0
 15 20  2  0
 10 21  1  0
 21 22  2  0
 22 23  1  0
 23 24  2  0
 24 25  1  0
 25 26  1  0
 26 27  1  0
 26 28  1  0
 26 29  1  0
 25 30  2  0
  9 31  2  0
 31  5  1  0
 20 11  1  0
 30 21  1  0
M  END
>  <linear_selectivity>  (461) 
46

>  <denticity>  (461) 
1

>  <ligand_class>  (461) 
phosphine

$$$$
P(2-tBu-Ph)3_90C_dioxane
     RDKit          2D

 31 33  0  0  0  0  0  0  0  0999 V2000
    4.5000   -4.0981    0.0000 C   0  0  0  0  0  0  0  0  0  0  0  0
    4.5000   -2.5981    0.0000 C   0  0  0  0  0  0  0  0  0  0  0  0
    4.5000   -1.0981    0.0000 C   0  0  0  0  0  0  0  0  0  0  0  0
    6.0000   -2.5981    0.0000 C   0  0  0  0  0  0  0  0  0  0  0  0
    3.0000   -2.5981    0.0000 C   0  0  0  0  0  0  0  0  0  0  0  0
    2.2500   -3.8971    0.0000 C   0  0  0  0  0  0  0  0  0  0  0  0
    0.7500   -3.8971    0.0000 C   0  0  0  0  0  0  0  0  0  0  0  0
   -0.0000   -2.5981    0.0000 C   0  0  0  0  0  0  0  0  0  0  0  0
    0.7500   -1.2990    0.0000 C   0  0  0  0  0  0  0  0  0  0  0  0
    0.0000    0.0000    0.0000 P   0  0  0  0  0  0  0  0  0  0  0  0
    0.7500    1.2990    0.0000 C   0  0  0  0  0  0  0  0  0  0  0  0
    2.2500    1.2990    0.0000 C   0  0  0  0  0  0  0  0  0  0  0  0
    3.0000    2.5981    0.0000 C   0  0  0  0  0  0  0  0  0  0  0  0
    2.2500    3.8971    0.0000 C   0  0  0  0  0  0  0  0  0  0  0  0
    0.7500    3.8971    0.0000 C   0  0  0  0  0  0  0  0  0  0  0  0
    0.0000    5.1962    0.0000 C   0  0  0  0  0  0  0  0  0  0  0  0
    1.2990    5.9462    0.0000 C   0  0  0  0  0  0  0  0  0  0  0  0
   -1.2990    4.4462    0.0000 C   0  0  0  0  0  0  0  0  0  0  0  0
   -0.7500    6.4952    0.0000 C   0  0  0  0  0  0  0  0  0  0  0  0
    0.0000    2.5981    0.0000 C   0  0  0  0  0  0  0  0  0  0  0  0
   -1.5000    0.0000    0.0000 C   0  0  0  0  0  0  0  0  0  0  0  0
   -2.2500    1.2990    0.0000 C   0  0  0  0  0  0  0  0  0  0  0  0
   -3.7500    1.2990    0.0000 C   0  0  0  0  0  0  0  0  0  0  0  0
   -4.5000    0.0000    0.0000 C   0  0  0  0  0  0  0  0  0  0  0  0
   -3.7500   -1.2990    0.0000 C   0  0  0  0  0  0  0  0  0  0  0  0
   -4.5000   -2.5981    0.0000 C   0  0  0  0  0  0  0  0  0  0  0  0
   -5.7990   -1.8481    0.0000 C   0  0  0  0  0  0  0  0  0  0  0  0
   -3.2010   -3.3481    0.0000 C   0  0  0  0  0  0  0  0  0  0  0  0
   -5.2500   -3.8971    0.0000 C   0  0  0  0  0  0  0  0  0  0  0  0
   -2.2500   -1.2990    0.0000 C   0  0  0  0  0  0  0  0  0  0  0  0
    2.2500   -1.2990    0.0000 C   0  0  0  0  0  0  0  0  0  0  0  0
  1  2  1  0
  2  3  1  0
  2  4  1  0
  2  5  1  0
  5  6  2  0
  6  7  1  0
  7  8  2  0
  8  9  1  0
  9 10  1  0
 10 11  1  0
 11 12  2  0
 12 13  1  0
 13 14  2  0
 14 15  1  0
 15 16  1  0
 16 17  1  0
 16 18  1  0
 16 19  1  0
 15 20  2  0
 10 21  1  0
 21 22  2  0
 22 23  1  0
 23 24  2  0
 24 25  1  0
 25 26  1  0
 26 27  1  0
 26 28  1  0
 26 29  1  0
 25 30  2  0
  9 31  2  0
 31  5  1  0
 20 11  1  0
 30 21  1  0
M  END
>  <linear_selectivity>  (462) 
54

>  <denticity>  (462) 
1

>  <ligand_class>  (462) 
phosphine

$$$$
P(2-tBu-Ph)3_90C_hexane
     RDKit          2D

 31 33  0  0  0  0  0  0  0  0999 V2000
    4.5000   -4.0981    0.0000 C   0  0  0  0  0  0  0  0  0  0  0  0
    4.5000   -2.5981    0.0000 C   0  0  0  0  0  0  0  0  0  0  0  0
    4.5000   -1.0981    0.0000 C   0  0  0  0  0  0  0  0  0  0  0  0
    6.0000   -2.5981    0.0000 C   0  0  0  0  0  0  0  0  0  0  0  0
    3.0000   -2.5981    0.0000 C   0  0  0  0  0  0  0  0  0  0  0  0
    2.2500   -3.8971    0.0000 C   0  0  0  0  0  0  0  0  0  0  0  0
    0.7500   -3.8971    0.0000 C   0  0  0  0  0  0  0  0  0  0  0  0
   -0.0000   -2.5981    0.0000 C   0  0  0  0  0  0  0  0  0  0  0  0
    0.7500   -1.2990    0.0000 C   0  0  0  0  0  0  0  0  0  0  0  0
    0.0000    0.0000    0.0000 P   0  0  0  0  0  0  0  0  0  0  0  0
    0.7500    1.2990    0.0000 C   0  0  0  0  0  0  0  0  0  0  0  0
    2.2500    1.2990    0.0000 C   0  0  0  0  0  0  0  0  0  0  0  0
    3.0000    2.5981    0.0000 C   0  0  0  0  0  0  0  0  0  0  0  0
    2.2500    3.8971    0.0000 C   0  0  0  0  0  0  0  0  0  0  0  0
    0.7500    3.8971    0.0000 C   0  0  0  0  0  0  0  0  0  0  0  0
    0.0000    5.1962    0.0000 C   0  0  0  0  0  0  0  0  0  0  0  0
    1.2990    5.9462    0.0000 C   0  0  0  0  0  0  0  0  0  0  0  0
   -1.2990    4.4462    0.0000 C   0  0  0  0  0  0  0  0  0  0  0  0
   -0.7500    6.4952    0.0000 C   0  0  0  0  0  0  0  0  0  0  0  0
    0.0000    2.5981    0.0000 C   0  0  0  0  0  0  0  0  0  0  0  0
   -1.5000    0.0000    0.0000 C   0  0  0  0  0  0  0  0  0  0  0  0
   -2.2500    1.2990    0.0000 C   0  0  0  0  0  0  0  0  0  0  0  0
   -3.7500    1.2990    0.0000 C   0  0  0  0  0  0  0  0  0  0  0  0
   -4.5000    0.0000    0.0000 C   0  0  0  0  0  0  0  0  0  0  0  0
   -3.7500   -1.2990    0.0000 C   0  0  0  0  0  0  0  0  0  0  0  0
   -4.5000   -2.5981    0.0000 C   0  0  0  0  0  0  0  0  0  0  0  0
   -5.7990   -1.8481    0.0000 C   0  0  0  0  0  0  0  0  0  0  0  0
   -3.2010   -3.3481    0.0000 C   0  0  0  0  0  0  0  0  0  0  0  0
   -5.2500   -3.8971    0.0000 C   0  0  0  0  0  0  0  0  0  0  0  0
   -2.2500   -1.2990    0.0000 C   0  0  0  0  0  0  0  0  0  0  0  0
    2.2500   -1.2990    0.0000 C   0  0  0  0  0  0  0  0  0  0  0  0
  1  2  1  0
  2  3  1  0
  2  4  1  0
  2  5  1  0
  5  6  2  0
  6  7  1  0
  7  8  2  0
  8  9  1  0
  9 10  1  0
 10 11  1  0
 11 12  2  0
 12 13  1  0
 13 14  2  0
 14 15  1  0
 15 16  1  0
 16 17  1  0
 16 18  1  0
 16 19  1  0
 15 20  2  0
 10 21  1  0
 21 22  2  0
 22 23  1  0
 23 24  2  0
 24 25  1  0
 25 26  1  0
 26 27  1  0
 26 28  1  0
 26 29  1  0
 25 30  2  0
  9 31  2  0
 31  5  1  0
 20 11  1  0
 30 21  1  0
M  END
>  <linear_selectivity>  (463) 
58

>  <denticity>  (463) 
1

>  <ligand_class>  (463) 
phosphine

$$$$
P(2-tBu-Ph)3_90C_benzene
     RDKit          2D

 31 33  0  0  0  0  0  0  0  0999 V2000
    4.5000   -4.0981    0.0000 C   0  0  0  0  0  0  0  0  0  0  0  0
    4.5000   -2.5981    0.0000 C   0  0  0  0  0  0  0  0  0  0  0  0
    4.5000   -1.0981    0.0000 C   0  0  0  0  0  0  0  0  0  0  0  0
    6.0000   -2.5981    0.0000 C   0  0  0  0  0  0  0  0  0  0  0  0
    3.0000   -2.5981    0.0000 C   0  0  0  0  0  0  0  0  0  0  0  0
    2.2500   -3.8971    0.0000 C   0  0  0  0  0  0  0  0  0  0  0  0
    0.7500   -3.8971    0.0000 C   0  0  0  0  0  0  0  0  0  0  0  0
   -0.0000   -2.5981    0.0000 C   0  0  0  0  0  0  0  0  0  0  0  0
    0.7500   -1.2990    0.0000 C   0  0  0  0  0  0  0  0  0  0  0  0
    0.0000    0.0000    0.0000 P   0  0  0  0  0  0  0  0  0  0  0  0
    0.7500    1.2990    0.0000 C   0  0  0  0  0  0  0  0  0  0  0  0
    2.2500    1.2990    0.0000 C   0  0  0  0  0  0  0  0  0  0  0  0
    3.0000    2.5981    0.0000 C   0  0  0  0  0  0  0  0  0  0  0  0
    2.2500    3.8971    0.0000 C   0  0  0  0  0  0  0  0  0  0  0  0
    0.7500    3.8971    0.0000 C   0  0  0  0  0  0  0  0  0  0  0  0
    0.0000    5.1962    0.0000 C   0  0  0  0  0  0  0  0  0  0  0  0
    1.2990    5.9462    0.0000 C   0  0  0  0  0  0  0  0  0  0  0  0
   -1.2990    4.4462    0.0000 C   0  0  0  0  0  0  0  0  0  0  0  0
   -0.7500    6.4952    0.0000 C   0  0  0  0  0  0  0  0  0  0  0  0
    0.0000    2.5981    0.0000 C   0  0  0  0  0  0  0  0  0  0  0  0
   -1.5000    0.0000    0.0000 C   0  0  0  0  0  0  0  0  0  0  0  0
   -2.2500    1.2990    0.0000 C   0  0  0  0  0  0  0  0  0  0  0  0
   -3.7500    1.2990    0.0000 C   0  0  0  0  0  0  0  0  0  0  0  0
   -4.5000    0.0000    0.0000 C   0  0  0  0  0  0  0  0  0  0  0  0
   -3.7500   -1.2990    0.0000 C   0  0  0  0  0  0  0  0  0  0  0  0
   -4.5000   -2.5981    0.0000 C   0  0  0  0  0  0  0  0  0  0  0  0
   -5.7990   -1.8481    0.0000 C   0  0  0  0  0  0  0  0  0  0  0  0
   -3.2010   -3.3481    0.0000 C   0  0  0  0  0  0  0  0  0  0  0  0
   -5.2500   -3.8971    0.0000 C   0  0  0  0  0  0  0  0  0  0  0  0
   -2.2500   -1.2990    0.0000 C   0  0  0  0  0  0  0  0  0  0  0  0
    2.2500   -1.2990    0.0000 C   0  0  0  0  0  0  0  0  0  0  0  0
  1  2  1  0
  2  3  1  0
  2  4  1  0
  2  5  1  0
  5  6  2  0
  6  7  1  0
  7  8  2  0
  8  9  1  0
  9 10  1  0
 10 11  1  0
 11 12  2  0
 12 13  1  0
 13 14  2  0
 14 15  1  0
 15 16  1  0
 16 17  1  0
 16 18  1  0
 16 19  1  0
 15 20  2  0
 10 21  1  0
 21 22  2  0
 22 23  1  0
 23 24  2  0
 24 25  1  0
 25 26  1  0
 26 27  1  0
 26 28  1  0
 26 29  1  0
 25 30  2  0
  9 31  2  0
 31  5  1  0
 20 11  1  0
 30 21  1  0
M  END
>  <linear_selectivity>  (464) 
54

>  <denticity>  (464) 
1

>  <ligand_class>  (464) 
phosphine

$$$$
P(2-tBu-Ph)3_100C_toluene
     RDKit          2D

 31 33  0  0  0  0  0  0  0  0999 V2000
    4.5000   -4.0981    0.0000 C   0  0  0  0  0  0  0  0  0  0  0  0
    4.5000   -2.5981    0.0000 C   0  0  0  0  0  0  0  0  0  0  0  0
    4.5000   -1.0981    0.0000 C   0  0  0  0  0  0  0  0  0  0  0  0
    6.0000   -2.5981    0.0000 C   0  0  0  0  0  0  0  0  0  0  0  0
    3.0000   -2.5981    0.0000 C   0  0  0  0  0  0  0  0  0  0  0  0
    2.2500   -3.8971    0.0000 C   0  0  0  0  0  0  0  0  0  0  0  0
    0.7500   -3.8971    0.0000 C   0  0  0  0  0  0  0  0  0  0  0  0
   -0.0000   -2.5981    0.0000 C   0  0  0  0  0  0  0  0  0  0  0  0
    0.7500   -1.2990    0.0000 C   0  0  0  0  0  0  0  0  0  0  0  0
    0.0000    0.0000    0.0000 P   0  0  0  0  0  0  0  0  0  0  0  0
    0.7500    1.2990    0.0000 C   0  0  0  0  0  0  0  0  0  0  0  0
    2.2500    1.2990    0.0000 C   0  0  0  0  0  0  0  0  0  0  0  0
    3.0000    2.5981    0.0000 C   0  0  0  0  0  0  0  0  0  0  0  0
    2.2500    3.8971    0.0000 C   0  0  0  0  0  0  0  0  0  0  0  0
    0.7500    3.8971    0.0000 C   0  0  0  0  0  0  0  0  0  0  0  0
    0.0000    5.1962    0.0000 C   0  0  0  0  0  0  0  0  0  0  0  0
    1.2990    5.9462    0.0000 C   0  0  0  0  0  0  0  0  0  0  0  0
   -1.2990    4.4462    0.0000 C   0  0  0  0  0  0  0  0  0  0  0  0
   -0.7500    6.4952    0.0000 C   0  0  0  0  0  0  0  0  0  0  0  0
    0.0000    2.5981    0.0000 C   0  0  0  0  0  0  0  0  0  0  0  0
   -1.5000    0.0000    0.0000 C   0  0  0  0  0  0  0  0  0  0  0  0
   -2.2500    1.2990    0.0000 C   0  0  0  0  0  0  0  0  0  0  0  0
   -3.7500    1.2990    0.0000 C   0  0  0  0  0  0  0  0  0  0  0  0
   -4.5000    0.0000    0.0000 C   0  0  0  0  0  0  0  0  0  0  0  0
   -3.7500   -1.2990    0.0000 C   0  0  0  0  0  0  0  0  0  0  0  0
   -4.5000   -2.5981    0.0000 C   0  0  0  0  0  0  0  0  0  0  0  0
   -5.7990   -1.8481    0.0000 C   0  0  0  0  0  0  0  0  0  0  0  0
   -3.2010   -3.3481    0.0000 C   0  0  0  0  0  0  0  0  0  0  0  0
   -5.2500   -3.8971    0.0000 C   0  0  0  0  0  0  0  0  0  0  0  0
   -2.2500   -1.2990    0.0000 C   0  0  0  0  0  0  0  0  0  0  0  0
    2.2500   -1.2990    0.0000 C   0  0  0  0  0  0  0  0  0  0  0  0
  1  2  1  0
  2  3  1  0
  2  4  1  0
  2  5  1  0
  5  6  2  0
  6  7  1  0
  7  8  2  0
  8  9  1  0
  9 10  1  0
 10 11  1  0
 11 12  2  0
 12 13  1  0
 13 14  2  0
 14 15  1  0
 15 16  1  0
 16 17  1  0
 16 18  1  0
 16 19  1  0
 15 20  2  0
 10 21  1  0
 21 22  2  0
 22 23  1  0
 23 24  2  0
 24 25  1  0
 25 26  1  0
 26 27  1  0
 26 28  1  0
 26 29  1  0
 25 30  2  0
  9 31  2  0
 31  5  1  0
 20 11  1  0
 30 21  1  0
M  END
>  <linear_selectivity>  (465) 
49

>  <denticity>  (465) 
1

>  <ligand_class>  (465) 
phosphine

$$$$
P(2-tBu-Ph)3_100C_THF
     RDKit          2D

 31 33  0  0  0  0  0  0  0  0999 V2000
    4.5000   -4.0981    0.0000 C   0  0  0  0  0  0  0  0  0  0  0  0
    4.5000   -2.5981    0.0000 C   0  0  0  0  0  0  0  0  0  0  0  0
    4.5000   -1.0981    0.0000 C   0  0  0  0  0  0  0  0  0  0  0  0
    6.0000   -2.5981    0.0000 C   0  0  0  0  0  0  0  0  0  0  0  0
    3.0000   -2.5981    0.0000 C   0  0  0  0  0  0  0  0  0  0  0  0
    2.2500   -3.8971    0.0000 C   0  0  0  0  0  0  0  0  0  0  0  0
    0.7500   -3.8971    0.0000 C   0  0  0  0  0  0  0  0  0  0  0  0
   -0.0000   -2.5981    0.0000 C   0  0  0  0  0  0  0  0  0  0  0  0
    0.7500   -1.2990    0.0000 C   0  0  0  0  0  0  0  0  0  0  0  0
    0.0000    0.0000    0.0000 P   0  0  0  0  0  0  0  0  0  0  0  0
    0.7500    1.2990    0.0000 C   0  0  0  0  0  0  0  0  0  0  0  0
    2.2500    1.2990    0.0000 C   0  0  0  0  0  0  0  0  0  0  0  0
    3.0000    2.5981    0.0000 C   0  0  0  0  0  0  0  0  0  0  0  0
    2.2500    3.8971    0.0000 C   0  0  0  0  0  0  0  0  0  0  0  0
    0.7500    3.8971    0.0000 C   0  0  0  0  0  0  0  0  0  0  0  0
    0.0000    5.1962    0.0000 C   0  0  0  0  0  0  0  0  0  0  0  0
    1.2990    5.9462    0.0000 C   0  0  0  0  0  0  0  0  0  0  0  0
   -1.2990    4.4462    0.0000 C   0  0  0  0  0  0  0  0  0  0  0  0
   -0.7500    6.4952    0.0000 C   0  0  0  0  0  0  0  0  0  0  0  0
    0.0000    2.5981    0.0000 C   0  0  0  0  0  0  0  0  0  0  0  0
   -1.5000    0.0000    0.0000 C   0  0  0  0  0  0  0  0  0  0  0  0
   -2.2500    1.2990    0.0000 C   0  0  0  0  0  0  0  0  0  0  0  0
   -3.7500    1.2990    0.0000 C   0  0  0  0  0  0  0  0  0  0  0  0
   -4.5000    0.0000    0.0000 C   0  0  0  0  0  0  0  0  0  0  0  0
   -3.7500   -1.2990    0.0000 C   0  0  0  0  0  0  0  0  0  0  0  0
   -4.5000   -2.5981    0.0000 C   0  0  0  0  0  0  0  0  0  0  0  0
   -5.7990   -1.8481    0.0000 C   0  0  0  0  0  0  0  0  0  0  0  0
   -3.2010   -3.3481    0.0000 C   0  0  0  0  0  0  0  0  0  0  0  0
   -5.2500   -3.8971    0.0000 C   0  0  0  0  0  0  0  0  0  0  0  0
   -2.2500   -1.2990    0.0000 C   0  0  0  0  0  0  0  0  0  0  0  0
    2.2500   -1.2990    0.0000 C   0  0  0  0  0  0  0  0  0  0  0  0
  1  2  1  0
  2  3  1  0
  2  4  1  0
  2  5  1  0
  5  6  2  0
  6  7  1  0
  7  8  2  0
  8  9  1  0
  9 10  1  0
 10 11  1  0
 11 12  2  0
 12 13  1  0
 13 14  2  0
 14 15  1  0
 15 16  1  0
 16 17  1  0
 16 18  1  0
 16 19  1  0
 15 20  2  0
 10 21  1  0
 21 22  2  0
 22 23  1  0
 23 24  2  0
 24 25  1  0
 25 26  1  0
 26 27  1  0
 26 28  1  0
 26 29  1  0
 25 30  2  0
  9 31  2  0
 31  5  1  0
 20 11  1  0
 30 21  1  0
M  END
>  <linear_selectivity>  (466) 
47

>  <denticity>  (466) 
1

>  <ligand_class>  (466) 
phosphine

$$$$
P(2-tBu-Ph)3_100C_hexane
     RDKit          2D

 31 33  0  0  0  0  0  0  0  0999 V2000
    4.5000   -4.0981    0.0000 C   0  0  0  0  0  0  0  0  0  0  0  0
    4.5000   -2.5981    0.0000 C   0  0  0  0  0  0  0  0  0  0  0  0
    4.5000   -1.0981    0.0000 C   0  0  0  0  0  0  0  0  0  0  0  0
    6.0000   -2.5981    0.0000 C   0  0  0  0  0  0  0  0  0  0  0  0
    3.0000   -2.5981    0.0000 C   0  0  0  0  0  0  0  0  0  0  0  0
    2.2500   -3.8971    0.0000 C   0  0  0  0  0  0  0  0  0  0  0  0
    0.7500   -3.8971    0.0000 C   0  0  0  0  0  0  0  0  0  0  0  0
   -0.0000   -2.5981    0.0000 C   0  0  0  0  0  0  0  0  0  0  0  0
    0.7500   -1.2990    0.0000 C   0  0  0  0  0  0  0  0  0  0  0  0
    0.0000    0.0000    0.0000 P   0  0  0  0  0  0  0  0  0  0  0  0
    0.7500    1.2990    0.0000 C   0  0  0  0  0  0  0  0  0  0  0  0
    2.2500    1.2990    0.0000 C   0  0  0  0  0  0  0  0  0  0  0  0
    3.0000    2.5981    0.0000 C   0  0  0  0  0  0  0  0  0  0  0  0
    2.2500    3.8971    0.0000 C   0  0  0  0  0  0  0  0  0  0  0  0
    0.7500    3.8971    0.0000 C   0  0  0  0  0  0  0  0  0  0  0  0
    0.0000    5.1962    0.0000 C   0  0  0  0  0  0  0  0  0  0  0  0
    1.2990    5.9462    0.0000 C   0  0  0  0  0  0  0  0  0  0  0  0
   -1.2990    4.4462    0.0000 C   0  0  0  0  0  0  0  0  0  0  0  0
   -0.7500    6.4952    0.0000 C   0  0  0  0  0  0  0  0  0  0  0  0
    0.0000    2.5981    0.0000 C   0  0  0  0  0  0  0  0  0  0  0  0
   -1.5000    0.0000    0.0000 C   0  0  0  0  0  0  0  0  0  0  0  0
   -2.2500    1.2990    0.0000 C   0  0  0  0  0  0  0  0  0  0  0  0
   -3.7500    1.2990    0.0000 C   0  0  0  0  0  0  0  0  0  0  0  0
   -4.5000    0.0000    0.0000 C   0  0  0  0  0  0  0  0  0  0  0  0
   -3.7500   -1.2990    0.0000 C   0  0  0  0  0  0  0  0  0  0  0  0
   -4.5000   -2.5981    0.0000 C   0  0  0  0  0  0  0  0  0  0  0  0
   -5.7990   -1.8481    0.0000 C   0  0  0  0  0  0  0  0  0  0  0  0
   -3.2010   -3.3481    0.0000 C   0  0  0  0  0  0  0  0  0  0  0  0
   -5.2500   -3.8971    0.0000 C   0  0  0  0  0  0  0  0  0  0  0  0
   -2.2500   -1.2990    0.0000 C   0  0  0  0  0  0  0  0  0  0  0  0
    2.2500   -1.2990    0.0000 C   0  0  0  0  0  0  0  0  0  0  0  0
  1  2  1  0
  2  3  1  0
  2  4  1  0
  2  5  1  0
  5  6  2  0
  6  7  1  0
  7  8  2  0
  8  9  1  0
  9 10  1  0
 10 11  1  0
 11 12  2  0
 12 13  1  0
 13 14  2  0
 14 15  1  0
 15 16  1  0
 16 17  1  0
 16 18  1  0
 16 19  1  0
 15 20  2  0
 10 21  1  0
 21 22  2  0
 22 23  1  0
 23 24  2  0
 24 25  1  0
 25 26  1  0
 26 27  1  0
 26 28  1  0
 26 29  1  0
 25 30  2  0
  9 31  2  0
 31  5  1  0
 20 11  1  0
 30 21  1  0
M  END
>  <linear_selectivity>  (467) 
55

>  <denticity>  (467) 
1

>  <ligand_class>  (467) 
phosphine

$$$$
P(2-tBu-Ph)3_100C_benzene
     RDKit          2D

 31 33  0  0  0  0  0  0  0  0999 V2000
    4.5000   -4.0981    0.0000 C   0  0  0  0  0  0  0  0  0  0  0  0
    4.5000   -2.5981    0.0000 C   0  0  0  0  0  0  0  0  0  0  0  0
    4.5000   -1.0981    0.0000 C   0  0  0  0  0  0  0  0  0  0  0  0
    6.0000   -2.5981    0.0000 C   0  0  0  0  0  0  0  0  0  0  0  0
    3.0000   -2.5981    0.0000 C   0  0  0  0  0  0  0  0  0  0  0  0
    2.2500   -3.8971    0.0000 C   0  0  0  0  0  0  0  0  0  0  0  0
    0.7500   -3.8971    0.0000 C   0  0  0  0  0  0  0  0  0  0  0  0
   -0.0000   -2.5981    0.0000 C   0  0  0  0  0  0  0  0  0  0  0  0
    0.7500   -1.2990    0.0000 C   0  0  0  0  0  0  0  0  0  0  0  0
    0.0000    0.0000    0.0000 P   0  0  0  0  0  0  0  0  0  0  0  0
    0.7500    1.2990    0.0000 C   0  0  0  0  0  0  0  0  0  0  0  0
    2.2500    1.2990    0.0000 C   0  0  0  0  0  0  0  0  0  0  0  0
    3.0000    2.5981    0.0000 C   0  0  0  0  0  0  0  0  0  0  0  0
    2.2500    3.8971    0.0000 C   0  0  0  0  0  0  0  0  0  0  0  0
    0.7500    3.8971    0.0000 C   0  0  0  0  0  0  0  0  0  0  0  0
    0.0000    5.1962    0.0000 C   0  0  0  0  0  0  0  0  0  0  0  0
    1.2990    5.9462    0.0000 C   0  0  0  0  0  0  0  0  0  0  0  0
   -1.2990    4.4462    0.0000 C   0  0  0  0  0  0  0  0  0  0  0  0
   -0.7500    6.4952    0.0000 C   0  0  0  0  0  0  0  0  0  0  0  0
    0.0000    2.5981    0.0000 C   0  0  0  0  0  0  0  0  0  0  0  0
   -1.5000    0.0000    0.0000 C   0  0  0  0  0  0  0  0  0  0  0  0
   -2.2500    1.2990    0.0000 C   0  0  0  0  0  0  0  0  0  0  0  0
   -3.7500    1.2990    0.0000 C   0  0  0  0  0  0  0  0  0  0  0  0
   -4.5000    0.0000    0.0000 C   0  0  0  0  0  0  0  0  0  0  0  0
   -3.7500   -1.2990    0.0000 C   0  0  0  0  0  0  0  0  0  0  0  0
   -4.5000   -2.5981    0.0000 C   0  0  0  0  0  0  0  0  0  0  0  0
   -5.7990   -1.8481    0.0000 C   0  0  0  0  0  0  0  0  0  0  0  0
   -3.2010   -3.3481    0.0000 C   0  0  0  0  0  0  0  0  0  0  0  0
   -5.2500   -3.8971    0.0000 C   0  0  0  0  0  0  0  0  0  0  0  0
   -2.2500   -1.2990    0.0000 C   0  0  0  0  0  0  0  0  0  0  0  0
    2.2500   -1.2990    0.0000 C   0  0  0  0  0  0  0  0  0  0  0  0
  1  2  1  0
  2  3  1  0
  2  4  1  0
  2  5  1  0
  5  6  2  0
  6  7  1  0
  7  8  2  0
  8  9  1  0
  9 10  1  0
 10 11  1  0
 11 12  2  0
 12 13  1  0
 13 14  2  0
 14 15  1  0
 15 16  1  0
 16 17  1  0
 16 18  1  0
 16 19  1  0
 15 20  2  0
 10 21  1  0
 21 22  2  0
 22 23  1  0
 23 24  2  0
 24 25  1  0
 25 26  1  0
 26 27  1  0
 26 28  1  0
 26 29  1  0
 25 30  2  0
  9 31  2  0
 31  5  1  0
 20 11  1  0
 30 21  1  0
M  END
>  <linear_selectivity>  (468) 
52

>  <denticity>  (468) 
1

>  <ligand_class>  (468) 
phosphine

$$$$
P(2-tBu-Ph)3_100C_xylene
     RDKit          2D

 31 33  0  0  0  0  0  0  0  0999 V2000
    4.5000   -4.0981    0.0000 C   0  0  0  0  0  0  0  0  0  0  0  0
    4.5000   -2.5981    0.0000 C   0  0  0  0  0  0  0  0  0  0  0  0
    4.5000   -1.0981    0.0000 C   0  0  0  0  0  0  0  0  0  0  0  0
    6.0000   -2.5981    0.0000 C   0  0  0  0  0  0  0  0  0  0  0  0
    3.0000   -2.5981    0.0000 C   0  0  0  0  0  0  0  0  0  0  0  0
    2.2500   -3.8971    0.0000 C   0  0  0  0  0  0  0  0  0  0  0  0
    0.7500   -3.8971    0.0000 C   0  0  0  0  0  0  0  0  0  0  0  0
   -0.0000   -2.5981    0.0000 C   0  0  0  0  0  0  0  0  0  0  0  0
    0.7500   -1.2990    0.0000 C   0  0  0  0  0  0  0  0  0  0  0  0
    0.0000    0.0000    0.0000 P   0  0  0  0  0  0  0  0  0  0  0  0
    0.7500    1.2990    0.0000 C   0  0  0  0  0  0  0  0  0  0  0  0
    2.2500    1.2990    0.0000 C   0  0  0  0  0  0  0  0  0  0  0  0
    3.0000    2.5981    0.0000 C   0  0  0  0  0  0  0  0  0  0  0  0
    2.2500    3.8971    0.0000 C   0  0  0  0  0  0  0  0  0  0  0  0
    0.7500    3.8971    0.0000 C   0  0  0  0  0  0  0  0  0  0  0  0
    0.0000    5.1962    0.0000 C   0  0  0  0  0  0  0  0  0  0  0  0
    1.2990    5.9462    0.0000 C   0  0  0  0  0  0  0  0  0  0  0  0
   -1.2990    4.4462    0.0000 C   0  0  0  0  0  0  0  0  0  0  0  0
   -0.7500    6.4952    0.0000 C   0  0  0  0  0  0  0  0  0  0  0  0
    0.0000    2.5981    0.0000 C   0  0  0  0  0  0  0  0  0  0  0  0
   -1.5000    0.0000    0.0000 C   0  0  0  0  0  0  0  0  0  0  0  0
   -2.2500    1.2990    0.0000 C   0  0  0  0  0  0  0  0  0  0  0  0
   -3.7500    1.2990    0.0000 C   0  0  0  0  0  0  0  0  0  0  0  0
   -4.5000    0.0000    0.0000 C   0  0  0  0  0  0  0  0  0  0  0  0
   -3.7500   -1.2990    0.0000 C   0  0  0  0  0  0  0  0  0  0  0  0
   -4.5000   -2.5981    0.0000 C   0  0  0  0  0  0  0  0  0  0  0  0
   -5.7990   -1.8481    0.0000 C   0  0  0  0  0  0  0  0  0  0  0  0
   -3.2010   -3.3481    0.0000 C   0  0  0  0  0  0  0  0  0  0  0  0
   -5.2500   -3.8971    0.0000 C   0  0  0  0  0  0  0  0  0  0  0  0
   -2.2500   -1.2990    0.0000 C   0  0  0  0  0  0  0  0  0  0  0  0
    2.2500   -1.2990    0.0000 C   0  0  0  0  0  0  0  0  0  0  0  0
  1  2  1  0
  2  3  1  0
  2  4  1  0
  2  5  1  0
  5  6  2  0
  6  7  1  0
  7  8  2  0
  8  9  1  0
  9 10  1  0
 10 11  1  0
 11 12  2  0
 12 13  1  0
 13 14  2  0
 14 15  1  0
 15 16  1  0
 16 17  1  0
 16 18  1  0
 16 19  1  0
 15 20  2  0
 10 21  1  0
 21 22  2  0
 22 23  1  0
 23 24  2  0
 24 25  1  0
 25 26  1  0
 26 27  1  0
 26 28  1  0
 26 29  1  0
 25 30  2  0
  9 31  2  0
 31  5  1  0
 20 11  1  0
 30 21  1  0
M  END
>  <linear_selectivity>  (469) 
52

>  <denticity>  (469) 
1

>  <ligand_class>  (469) 
phosphine

$$$$
P(2-tBu-Ph)3_110C_toluene
     RDKit          2D

 31 33  0  0  0  0  0  0  0  0999 V2000
    4.5000   -4.0981    0.0000 C   0  0  0  0  0  0  0  0  0  0  0  0
    4.5000   -2.5981    0.0000 C   0  0  0  0  0  0  0  0  0  0  0  0
    4.5000   -1.0981    0.0000 C   0  0  0  0  0  0  0  0  0  0  0  0
    6.0000   -2.5981    0.0000 C   0  0  0  0  0  0  0  0  0  0  0  0
    3.0000   -2.5981    0.0000 C   0  0  0  0  0  0  0  0  0  0  0  0
    2.2500   -3.8971    0.0000 C   0  0  0  0  0  0  0  0  0  0  0  0
    0.7500   -3.8971    0.0000 C   0  0  0  0  0  0  0  0  0  0  0  0
   -0.0000   -2.5981    0.0000 C   0  0  0  0  0  0  0  0  0  0  0  0
    0.7500   -1.2990    0.0000 C   0  0  0  0  0  0  0  0  0  0  0  0
    0.0000    0.0000    0.0000 P   0  0  0  0  0  0  0  0  0  0  0  0
    0.7500    1.2990    0.0000 C   0  0  0  0  0  0  0  0  0  0  0  0
    2.2500    1.2990    0.0000 C   0  0  0  0  0  0  0  0  0  0  0  0
    3.0000    2.5981    0.0000 C   0  0  0  0  0  0  0  0  0  0  0  0
    2.2500    3.8971    0.0000 C   0  0  0  0  0  0  0  0  0  0  0  0
    0.7500    3.8971    0.0000 C   0  0  0  0  0  0  0  0  0  0  0  0
    0.0000    5.1962    0.0000 C   0  0  0  0  0  0  0  0  0  0  0  0
    1.2990    5.9462    0.0000 C   0  0  0  0  0  0  0  0  0  0  0  0
   -1.2990    4.4462    0.0000 C   0  0  0  0  0  0  0  0  0  0  0  0
   -0.7500    6.4952    0.0000 C   0  0  0  0  0  0  0  0  0  0  0  0
    0.0000    2.5981    0.0000 C   0  0  0  0  0  0  0  0  0  0  0  0
   -1.5000    0.0000    0.0000 C   0  0  0  0  0  0  0  0  0  0  0  0
   -2.2500    1.2990    0.0000 C   0  0  0  0  0  0  0  0  0  0  0  0
   -3.7500    1.2990    0.0000 C   0  0  0  0  0  0  0  0  0  0  0  0
   -4.5000    0.0000    0.0000 C   0  0  0  0  0  0  0  0  0  0  0  0
   -3.7500   -1.2990    0.0000 C   0  0  0  0  0  0  0  0  0  0  0  0
   -4.5000   -2.5981    0.0000 C   0  0  0  0  0  0  0  0  0  0  0  0
   -5.7990   -1.8481    0.0000 C   0  0  0  0  0  0  0  0  0  0  0  0
   -3.2010   -3.3481    0.0000 C   0  0  0  0  0  0  0  0  0  0  0  0
   -5.2500   -3.8971    0.0000 C   0  0  0  0  0  0  0  0  0  0  0  0
   -2.2500   -1.2990    0.0000 C   0  0  0  0  0  0  0  0  0  0  0  0
    2.2500   -1.2990    0.0000 C   0  0  0  0  0  0  0  0  0  0  0  0
  1  2  1  0
  2  3  1  0
  2  4  1  0
  2  5  1  0
  5  6  2  0
  6  7  1  0
  7  8  2  0
  8  9  1  0
  9 10  1  0
 10 11  1  0
 11 12  2  0
 12 13  1  0
 13 14  2  0
 14 15  1  0
 15 16  1  0
 16 17  1  0
 16 18  1  0
 16 19  1  0
 15 20  2  0
 10 21  1  0
 21 22  2  0
 22 23  1  0
 23 24  2  0
 24 25  1  0
 25 26  1  0
 26 27  1  0
 26 28  1  0
 26 29  1  0
 25 30  2  0
  9 31  2  0
 31  5  1  0
 20 11  1  0
 30 21  1  0
M  END
>  <linear_selectivity>  (470) 
50

>  <denticity>  (470) 
1

>  <ligand_class>  (470) 
phosphine

$$$$
P(2-tBu-Ph)3_110C_dioxane
     RDKit          2D

 31 33  0  0  0  0  0  0  0  0999 V2000
    4.5000   -4.0981    0.0000 C   0  0  0  0  0  0  0  0  0  0  0  0
    4.5000   -2.5981    0.0000 C   0  0  0  0  0  0  0  0  0  0  0  0
    4.5000   -1.0981    0.0000 C   0  0  0  0  0  0  0  0  0  0  0  0
    6.0000   -2.5981    0.0000 C   0  0  0  0  0  0  0  0  0  0  0  0
    3.0000   -2.5981    0.0000 C   0  0  0  0  0  0  0  0  0  0  0  0
    2.2500   -3.8971    0.0000 C   0  0  0  0  0  0  0  0  0  0  0  0
    0.7500   -3.8971    0.0000 C   0  0  0  0  0  0  0  0  0  0  0  0
   -0.0000   -2.5981    0.0000 C   0  0  0  0  0  0  0  0  0  0  0  0
    0.7500   -1.2990    0.0000 C   0  0  0  0  0  0  0  0  0  0  0  0
    0.0000    0.0000    0.0000 P   0  0  0  0  0  0  0  0  0  0  0  0
    0.7500    1.2990    0.0000 C   0  0  0  0  0  0  0  0  0  0  0  0
    2.2500    1.2990    0.0000 C   0  0  0  0  0  0  0  0  0  0  0  0
    3.0000    2.5981    0.0000 C   0  0  0  0  0  0  0  0  0  0  0  0
    2.2500    3.8971    0.0000 C   0  0  0  0  0  0  0  0  0  0  0  0
    0.7500    3.8971    0.0000 C   0  0  0  0  0  0  0  0  0  0  0  0
    0.0000    5.1962    0.0000 C   0  0  0  0  0  0  0  0  0  0  0  0
    1.2990    5.9462    0.0000 C   0  0  0  0  0  0  0  0  0  0  0  0
   -1.2990    4.4462    0.0000 C   0  0  0  0  0  0  0  0  0  0  0  0
   -0.7500    6.4952    0.0000 C   0  0  0  0  0  0  0  0  0  0  0  0
    0.0000    2.5981    0.0000 C   0  0  0  0  0  0  0  0  0  0  0  0
   -1.5000    0.0000    0.0000 C   0  0  0  0  0  0  0  0  0  0  0  0
   -2.2500    1.2990    0.0000 C   0  0  0  0  0  0  0  0  0  0  0  0
   -3.7500    1.2990    0.0000 C   0  0  0  0  0  0  0  0  0  0  0  0
   -4.5000    0.0000    0.0000 C   0  0  0  0  0  0  0  0  0  0  0  0
   -3.7500   -1.2990    0.0000 C   0  0  0  0  0  0  0  0  0  0  0  0
   -4.5000   -2.5981    0.0000 C   0  0  0  0  0  0  0  0  0  0  0  0
   -5.7990   -1.8481    0.0000 C   0  0  0  0  0  0  0  0  0  0  0  0
   -3.2010   -3.3481    0.0000 C   0  0  0  0  0  0  0  0  0  0  0  0
   -5.2500   -3.8971    0.0000 C   0  0  0  0  0  0  0  0  0  0  0  0
   -2.2500   -1.2990    0.0000 C   0  0  0  0  0  0  0  0  0  0  0  0
    2.2500   -1.2990    0.0000 C   0  0  0  0  0  0  0  0  0  0  0  0
  1  2  1  0
  2  3  1  0
  2  4  1  0
  2  5  1  0
  5  6  2  0
  6  7  1  0
  7  8  2  0
  8  9  1  0
  9 10  1  0
 10 11  1  0
 11 12  2  0
 12 13  1  0
 13 14  2  0
 14 15  1  0
 15 16  1  0
 16 17  1  0
 16 18  1  0
 16 19  1  0
 15 20  2  0
 10 21  1  0
 21 22  2  0
 22 23  1  0
 23 24  2  0
 24 25  1  0
 25 26  1  0
 26 27  1  0
 26 28  1  0
 26 29  1  0
 25 30  2  0
  9 31  2  0
 31  5  1  0
 20 11  1  0
 30 21  1  0
M  END
>  <linear_selectivity>  (471) 
49

>  <denticity>  (471) 
1

>  <ligand_class>  (471) 
phosphine

$$$$
P(2-tBu-Ph)3_110C_hexane
     RDKit          2D

 31 33  0  0  0  0  0  0  0  0999 V2000
    4.5000   -4.0981    0.0000 C   0  0  0  0  0  0  0  0  0  0  0  0
    4.5000   -2.5981    0.0000 C   0  0  0  0  0  0  0  0  0  0  0  0
    4.5000   -1.0981    0.0000 C   0  0  0  0  0  0  0  0  0  0  0  0
    6.0000   -2.5981    0.0000 C   0  0  0  0  0  0  0  0  0  0  0  0
    3.0000   -2.5981    0.0000 C   0  0  0  0  0  0  0  0  0  0  0  0
    2.2500   -3.8971    0.0000 C   0  0  0  0  0  0  0  0  0  0  0  0
    0.7500   -3.8971    0.0000 C   0  0  0  0  0  0  0  0  0  0  0  0
   -0.0000   -2.5981    0.0000 C   0  0  0  0  0  0  0  0  0  0  0  0
    0.7500   -1.2990    0.0000 C   0  0  0  0  0  0  0  0  0  0  0  0
    0.0000    0.0000    0.0000 P   0  0  0  0  0  0  0  0  0  0  0  0
    0.7500    1.2990    0.0000 C   0  0  0  0  0  0  0  0  0  0  0  0
    2.2500    1.2990    0.0000 C   0  0  0  0  0  0  0  0  0  0  0  0
    3.0000    2.5981    0.0000 C   0  0  0  0  0  0  0  0  0  0  0  0
    2.2500    3.8971    0.0000 C   0  0  0  0  0  0  0  0  0  0  0  0
    0.7500    3.8971    0.0000 C   0  0  0  0  0  0  0  0  0  0  0  0
    0.0000    5.1962    0.0000 C   0  0  0  0  0  0  0  0  0  0  0  0
    1.2990    5.9462    0.0000 C   0  0  0  0  0  0  0  0  0  0  0  0
   -1.2990    4.4462    0.0000 C   0  0  0  0  0  0  0  0  0  0  0  0
   -0.7500    6.4952    0.0000 C   0  0  0  0  0  0  0  0  0  0  0  0
    0.0000    2.5981    0.0000 C   0  0  0  0  0  0  0  0  0  0  0  0
   -1.5000    0.0000    0.0000 C   0  0  0  0  0  0  0  0  0  0  0  0
   -2.2500    1.2990    0.0000 C   0  0  0  0  0  0  0  0  0  0  0  0
   -3.7500    1.2990    0.0000 C   0  0  0  0  0  0  0  0  0  0  0  0
   -4.5000    0.0000    0.0000 C   0  0  0  0  0  0  0  0  0  0  0  0
   -3.7500   -1.2990    0.0000 C   0  0  0  0  0  0  0  0  0  0  0  0
   -4.5000   -2.5981    0.0000 C   0  0  0  0  0  0  0  0  0  0  0  0
   -5.7990   -1.8481    0.0000 C   0  0  0  0  0  0  0  0  0  0  0  0
   -3.2010   -3.3481    0.0000 C   0  0  0  0  0  0  0  0  0  0  0  0
   -5.2500   -3.8971    0.0000 C   0  0  0  0  0  0  0  0  0  0  0  0
   -2.2500   -1.2990    0.0000 C   0  0  0  0  0  0  0  0  0  0  0  0
    2.2500   -1.2990    0.0000 C   0  0  0  0  0  0  0  0  0  0  0  0
  1  2  1  0
  2  3  1  0
  2  4  1  0
  2  5  1  0
  5  6  2  0
  6  7  1  0
  7  8  2  0
  8  9  1  0
  9 10  1  0
 10 11  1  0
 11 12  2  0
 12 13  1  0
 13 14  2  0
 14 15  1  0
 15 16  1  0
 16 17  1  0
 16 18  1  0
 16 19  1  0
 15 20  2  0
 10 21  1  0
 21 22  2  0
 22 23  1  0
 23 24  2  0
 24 25  1  0
 25 26  1  0
 26 27  1  0
 26 28  1  0
 26 29  1  0
 25 30  2  0
  9 31  2  0
 31  5  1  0
 20 11  1  0
 30 21  1  0
M  END
>  <linear_selectivity>  (472) 
52

>  <denticity>  (472) 
1

>  <ligand_class>  (472) 
phosphine

$$$$
P(2-tBu-Ph)3_110C_benzene
     RDKit          2D

 31 33  0  0  0  0  0  0  0  0999 V2000
    4.5000   -4.0981    0.0000 C   0  0  0  0  0  0  0  0  0  0  0  0
    4.5000   -2.5981    0.0000 C   0  0  0  0  0  0  0  0  0  0  0  0
    4.5000   -1.0981    0.0000 C   0  0  0  0  0  0  0  0  0  0  0  0
    6.0000   -2.5981    0.0000 C   0  0  0  0  0  0  0  0  0  0  0  0
    3.0000   -2.5981    0.0000 C   0  0  0  0  0  0  0  0  0  0  0  0
    2.2500   -3.8971    0.0000 C   0  0  0  0  0  0  0  0  0  0  0  0
    0.7500   -3.8971    0.0000 C   0  0  0  0  0  0  0  0  0  0  0  0
   -0.0000   -2.5981    0.0000 C   0  0  0  0  0  0  0  0  0  0  0  0
    0.7500   -1.2990    0.0000 C   0  0  0  0  0  0  0  0  0  0  0  0
    0.0000    0.0000    0.0000 P   0  0  0  0  0  0  0  0  0  0  0  0
    0.7500    1.2990    0.0000 C   0  0  0  0  0  0  0  0  0  0  0  0
    2.2500    1.2990    0.0000 C   0  0  0  0  0  0  0  0  0  0  0  0
    3.0000    2.5981    0.0000 C   0  0  0  0  0  0  0  0  0  0  0  0
    2.2500    3.8971    0.0000 C   0  0  0  0  0  0  0  0  0  0  0  0
    0.7500    3.8971    0.0000 C   0  0  0  0  0  0  0  0  0  0  0  0
    0.0000    5.1962    0.0000 C   0  0  0  0  0  0  0  0  0  0  0  0
    1.2990    5.9462    0.0000 C   0  0  0  0  0  0  0  0  0  0  0  0
   -1.2990    4.4462    0.0000 C   0  0  0  0  0  0  0  0  0  0  0  0
   -0.7500    6.4952    0.0000 C   0  0  0  0  0  0  0  0  0  0  0  0
    0.0000    2.5981    0.0000 C   0  0  0  0  0  0  0  0  0  0  0  0
   -1.5000    0.0000    0.0000 C   0  0  0  0  0  0  0  0  0  0  0  0
   -2.2500    1.2990    0.0000 C   0  0  0  0  0  0  0  0  0  0  0  0
   -3.7500    1.2990    0.0000 C   0  0  0  0  0  0  0  0  0  0  0  0
   -4.5000    0.0000    0.0000 C   0  0  0  0  0  0  0  0  0  0  0  0
   -3.7500   -1.2990    0.0000 C   0  0  0  0  0  0  0  0  0  0  0  0
   -4.5000   -2.5981    0.0000 C   0  0  0  0  0  0  0  0  0  0  0  0
   -5.7990   -1.8481    0.0000 C   0  0  0  0  0  0  0  0  0  0  0  0
   -3.2010   -3.3481    0.0000 C   0  0  0  0  0  0  0  0  0  0  0  0
   -5.2500   -3.8971    0.0000 C   0  0  0  0  0  0  0  0  0  0  0  0
   -2.2500   -1.2990    0.0000 C   0  0  0  0  0  0  0  0  0  0  0  0
    2.2500   -1.2990    0.0000 C   0  0  0  0  0  0  0  0  0  0  0  0
  1  2  1  0
  2  3  1  0
  2  4  1  0
  2  5  1  0
  5  6  2  0
  6  7  1  0
  7  8  2  0
  8  9  1  0
  9 10  1  0
 10 11  1  0
 11 12  2  0
 12 13  1  0
 13 14  2  0
 14 15  1  0
 15 16  1  0
 16 17  1  0
 16 18  1  0
 16 19  1  0
 15 20  2  0
 10 21  1  0
 21 22  2  0
 22 23  1  0
 23 24  2  0
 24 25  1  0
 25 26  1  0
 26 27  1  0
 26 28  1  0
 26 29  1  0
 25 30  2  0
  9 31  2  0
 31  5  1  0
 20 11  1  0
 30 21  1  0
M  END
>  <linear_selectivity>  (473) 
51

>  <denticity>  (473) 
1

>  <ligand_class>  (473) 
phosphine

$$$$
P(2-tBu-Ph)3_110C_xylene
     RDKit          2D

 31 33  0  0  0  0  0  0  0  0999 V2000
    4.5000   -4.0981    0.0000 C   0  0  0  0  0  0  0  0  0  0  0  0
    4.5000   -2.5981    0.0000 C   0  0  0  0  0  0  0  0  0  0  0  0
    4.5000   -1.0981    0.0000 C   0  0  0  0  0  0  0  0  0  0  0  0
    6.0000   -2.5981    0.0000 C   0  0  0  0  0  0  0  0  0  0  0  0
    3.0000   -2.5981    0.0000 C   0  0  0  0  0  0  0  0  0  0  0  0
    2.2500   -3.8971    0.0000 C   0  0  0  0  0  0  0  0  0  0  0  0
    0.7500   -3.8971    0.0000 C   0  0  0  0  0  0  0  0  0  0  0  0
   -0.0000   -2.5981    0.0000 C   0  0  0  0  0  0  0  0  0  0  0  0
    0.7500   -1.2990    0.0000 C   0  0  0  0  0  0  0  0  0  0  0  0
    0.0000    0.0000    0.0000 P   0  0  0  0  0  0  0  0  0  0  0  0
    0.7500    1.2990    0.0000 C   0  0  0  0  0  0  0  0  0  0  0  0
    2.2500    1.2990    0.0000 C   0  0  0  0  0  0  0  0  0  0  0  0
    3.0000    2.5981    0.0000 C   0  0  0  0  0  0  0  0  0  0  0  0
    2.2500    3.8971    0.0000 C   0  0  0  0  0  0  0  0  0  0  0  0
    0.7500    3.8971    0.0000 C   0  0  0  0  0  0  0  0  0  0  0  0
    0.0000    5.1962    0.0000 C   0  0  0  0  0  0  0  0  0  0  0  0
    1.2990    5.9462    0.0000 C   0  0  0  0  0  0  0  0  0  0  0  0
   -1.2990    4.4462    0.0000 C   0  0  0  0  0  0  0  0  0  0  0  0
   -0.7500    6.4952    0.0000 C   0  0  0  0  0  0  0  0  0  0  0  0
    0.0000    2.5981    0.0000 C   0  0  0  0  0  0  0  0  0  0  0  0
   -1.5000    0.0000    0.0000 C   0  0  0  0  0  0  0  0  0  0  0  0
   -2.2500    1.2990    0.0000 C   0  0  0  0  0  0  0  0  0  0  0  0
   -3.7500    1.2990    0.0000 C   0  0  0  0  0  0  0  0  0  0  0  0
   -4.5000    0.0000    0.0000 C   0  0  0  0  0  0  0  0  0  0  0  0
   -3.7500   -1.2990    0.0000 C   0  0  0  0  0  0  0  0  0  0  0  0
   -4.5000   -2.5981    0.0000 C   0  0  0  0  0  0  0  0  0  0  0  0
   -5.7990   -1.8481    0.0000 C   0  0  0  0  0  0  0  0  0  0  0  0
   -3.2010   -3.3481    0.0000 C   0  0  0  0  0  0  0  0  0  0  0  0
   -5.2500   -3.8971    0.0000 C   0  0  0  0  0  0  0  0  0  0  0  0
   -2.2500   -1.2990    0.0000 C   0  0  0  0  0  0  0  0  0  0  0  0
    2.2500   -1.2990    0.0000 C   0  0  0  0  0  0  0  0  0  0  0  0
  1  2  1  0
  2  3  1  0
  2  4  1  0
  2  5  1  0
  5  6  2  0
  6  7  1  0
  7  8  2  0
  8  9  1  0
  9 10  1  0
 10 11  1  0
 11 12  2  0
 12 13  1  0
 13 14  2  0
 14 15  1  0
 15 16  1  0
 16 17  1  0
 16 18  1  0
 16 19  1  0
 15 20  2  0
 10 21  1  0
 21 22  2  0
 22 23  1  0
 23 24  2  0
 24 25  1  0
 25 26  1  0
 26 27  1  0
 26 28  1  0
 26 29  1  0
 25 30  2  0
  9 31  2  0
 31  5  1  0
 20 11  1  0
 30 21  1  0
M  END
>  <linear_selectivity>  (474) 
48

>  <denticity>  (474) 
1

>  <ligand_class>  (474) 
phosphine

$$$$
P(2-tBu-Ph)3_120C_toluene
     RDKit          2D

 31 33  0  0  0  0  0  0  0  0999 V2000
    4.5000   -4.0981    0.0000 C   0  0  0  0  0  0  0  0  0  0  0  0
    4.5000   -2.5981    0.0000 C   0  0  0  0  0  0  0  0  0  0  0  0
    4.5000   -1.0981    0.0000 C   0  0  0  0  0  0  0  0  0  0  0  0
    6.0000   -2.5981    0.0000 C   0  0  0  0  0  0  0  0  0  0  0  0
    3.0000   -2.5981    0.0000 C   0  0  0  0  0  0  0  0  0  0  0  0
    2.2500   -3.8971    0.0000 C   0  0  0  0  0  0  0  0  0  0  0  0
    0.7500   -3.8971    0.0000 C   0  0  0  0  0  0  0  0  0  0  0  0
   -0.0000   -2.5981    0.0000 C   0  0  0  0  0  0  0  0  0  0  0  0
    0.7500   -1.2990    0.0000 C   0  0  0  0  0  0  0  0  0  0  0  0
    0.0000    0.0000    0.0000 P   0  0  0  0  0  0  0  0  0  0  0  0
    0.7500    1.2990    0.0000 C   0  0  0  0  0  0  0  0  0  0  0  0
    2.2500    1.2990    0.0000 C   0  0  0  0  0  0  0  0  0  0  0  0
    3.0000    2.5981    0.0000 C   0  0  0  0  0  0  0  0  0  0  0  0
    2.2500    3.8971    0.0000 C   0  0  0  0  0  0  0  0  0  0  0  0
    0.7500    3.8971    0.0000 C   0  0  0  0  0  0  0  0  0  0  0  0
    0.0000    5.1962    0.0000 C   0  0  0  0  0  0  0  0  0  0  0  0
    1.2990    5.9462    0.0000 C   0  0  0  0  0  0  0  0  0  0  0  0
   -1.2990    4.4462    0.0000 C   0  0  0  0  0  0  0  0  0  0  0  0
   -0.7500    6.4952    0.0000 C   0  0  0  0  0  0  0  0  0  0  0  0
    0.0000    2.5981    0.0000 C   0  0  0  0  0  0  0  0  0  0  0  0
   -1.5000    0.0000    0.0000 C   0  0  0  0  0  0  0  0  0  0  0  0
   -2.2500    1.2990    0.0000 C   0  0  0  0  0  0  0  0  0  0  0  0
   -3.7500    1.2990    0.0000 C   0  0  0  0  0  0  0  0  0  0  0  0
   -4.5000    0.0000    0.0000 C   0  0  0  0  0  0  0  0  0  0  0  0
   -3.7500   -1.2990    0.0000 C   0  0  0  0  0  0  0  0  0  0  0  0
   -4.5000   -2.5981    0.0000 C   0  0  0  0  0  0  0  0  0  0  0  0
   -5.7990   -1.8481    0.0000 C   0  0  0  0  0  0  0  0  0  0  0  0
   -3.2010   -3.3481    0.0000 C   0  0  0  0  0  0  0  0  0  0  0  0
   -5.2500   -3.8971    0.0000 C   0  0  0  0  0  0  0  0  0  0  0  0
   -2.2500   -1.2990    0.0000 C   0  0  0  0  0  0  0  0  0  0  0  0
    2.2500   -1.2990    0.0000 C   0  0  0  0  0  0  0  0  0  0  0  0
  1  2  1  0
  2  3  1  0
  2  4  1  0
  2  5  1  0
  5  6  2  0
  6  7  1  0
  7  8  2  0
  8  9  1  0
  9 10  1  0
 10 11  1  0
 11 12  2  0
 12 13  1  0
 13 14  2  0
 14 15  1  0
 15 16  1  0
 16 17  1  0
 16 18  1  0
 16 19  1  0
 15 20  2  0
 10 21  1  0
 21 22  2  0
 22 23  1  0
 23 24  2  0
 24 25  1  0
 25 26  1  0
 26 27  1  0
 26 28  1  0
 26 29  1  0
 25 30  2  0
  9 31  2  0
 31  5  1  0
 20 11  1  0
 30 21  1  0
M  END
>  <linear_selectivity>  (475) 
45

>  <denticity>  (475) 
1

>  <ligand_class>  (475) 
phosphine

$$$$
P(2-tBu-Ph)3_120C_dioxane
     RDKit          2D

 31 33  0  0  0  0  0  0  0  0999 V2000
    4.5000   -4.0981    0.0000 C   0  0  0  0  0  0  0  0  0  0  0  0
    4.5000   -2.5981    0.0000 C   0  0  0  0  0  0  0  0  0  0  0  0
    4.5000   -1.0981    0.0000 C   0  0  0  0  0  0  0  0  0  0  0  0
    6.0000   -2.5981    0.0000 C   0  0  0  0  0  0  0  0  0  0  0  0
    3.0000   -2.5981    0.0000 C   0  0  0  0  0  0  0  0  0  0  0  0
    2.2500   -3.8971    0.0000 C   0  0  0  0  0  0  0  0  0  0  0  0
    0.7500   -3.8971    0.0000 C   0  0  0  0  0  0  0  0  0  0  0  0
   -0.0000   -2.5981    0.0000 C   0  0  0  0  0  0  0  0  0  0  0  0
    0.7500   -1.2990    0.0000 C   0  0  0  0  0  0  0  0  0  0  0  0
    0.0000    0.0000    0.0000 P   0  0  0  0  0  0  0  0  0  0  0  0
    0.7500    1.2990    0.0000 C   0  0  0  0  0  0  0  0  0  0  0  0
    2.2500    1.2990    0.0000 C   0  0  0  0  0  0  0  0  0  0  0  0
    3.0000    2.5981    0.0000 C   0  0  0  0  0  0  0  0  0  0  0  0
    2.2500    3.8971    0.0000 C   0  0  0  0  0  0  0  0  0  0  0  0
    0.7500    3.8971    0.0000 C   0  0  0  0  0  0  0  0  0  0  0  0
    0.0000    5.1962    0.0000 C   0  0  0  0  0  0  0  0  0  0  0  0
    1.2990    5.9462    0.0000 C   0  0  0  0  0  0  0  0  0  0  0  0
   -1.2990    4.4462    0.0000 C   0  0  0  0  0  0  0  0  0  0  0  0
   -0.7500    6.4952    0.0000 C   0  0  0  0  0  0  0  0  0  0  0  0
    0.0000    2.5981    0.0000 C   0  0  0  0  0  0  0  0  0  0  0  0
   -1.5000    0.0000    0.0000 C   0  0  0  0  0  0  0  0  0  0  0  0
   -2.2500    1.2990    0.0000 C   0  0  0  0  0  0  0  0  0  0  0  0
   -3.7500    1.2990    0.0000 C   0  0  0  0  0  0  0  0  0  0  0  0
   -4.5000    0.0000    0.0000 C   0  0  0  0  0  0  0  0  0  0  0  0
   -3.7500   -1.2990    0.0000 C   0  0  0  0  0  0  0  0  0  0  0  0
   -4.5000   -2.5981    0.0000 C   0  0  0  0  0  0  0  0  0  0  0  0
   -5.7990   -1.8481    0.0000 C   0  0  0  0  0  0  0  0  0  0  0  0
   -3.2010   -3.3481    0.0000 C   0  0  0  0  0  0  0  0  0  0  0  0
   -5.2500   -3.8971    0.0000 C   0  0  0  0  0  0  0  0  0  0  0  0
   -2.2500   -1.2990    0.0000 C   0  0  0  0  0  0  0  0  0  0  0  0
    2.2500   -1.2990    0.0000 C   0  0  0  0  0  0  0  0  0  0  0  0
  1  2  1  0
  2  3  1  0
  2  4  1  0
  2  5  1  0
  5  6  2  0
  6  7  1  0
  7  8  2  0
  8  9  1  0
  9 10  1  0
 10 11  1  0
 11 12  2  0
 12 13  1  0
 13 14  2  0
 14 15  1  0
 15 16  1  0
 16 17  1  0
 16 18  1  0
 16 19  1  0
 15 20  2  0
 10 21  1  0
 21 22  2  0
 22 23  1  0
 23 24  2  0
 24 25  1  0
 25 26  1  0
 26 27  1  0
 26 28  1  0
 26 29  1  0
 25 30  2  0
  9 31  2  0
 31  5  1  0
 20 11  1  0
 30 21  1  0
M  END
>  <linear_selectivity>  (476) 
46

>  <denticity>  (476) 
1

>  <ligand_class>  (476) 
phosphine

$$$$
P(2-tBu-Ph)3_120C_benzene
     RDKit          2D

 31 33  0  0  0  0  0  0  0  0999 V2000
    4.5000   -4.0981    0.0000 C   0  0  0  0  0  0  0  0  0  0  0  0
    4.5000   -2.5981    0.0000 C   0  0  0  0  0  0  0  0  0  0  0  0
    4.5000   -1.0981    0.0000 C   0  0  0  0  0  0  0  0  0  0  0  0
    6.0000   -2.5981    0.0000 C   0  0  0  0  0  0  0  0  0  0  0  0
    3.0000   -2.5981    0.0000 C   0  0  0  0  0  0  0  0  0  0  0  0
    2.2500   -3.8971    0.0000 C   0  0  0  0  0  0  0  0  0  0  0  0
    0.7500   -3.8971    0.0000 C   0  0  0  0  0  0  0  0  0  0  0  0
   -0.0000   -2.5981    0.0000 C   0  0  0  0  0  0  0  0  0  0  0  0
    0.7500   -1.2990    0.0000 C   0  0  0  0  0  0  0  0  0  0  0  0
    0.0000    0.0000    0.0000 P   0  0  0  0  0  0  0  0  0  0  0  0
    0.7500    1.2990    0.0000 C   0  0  0  0  0  0  0  0  0  0  0  0
    2.2500    1.2990    0.0000 C   0  0  0  0  0  0  0  0  0  0  0  0
    3.0000    2.5981    0.0000 C   0  0  0  0  0  0  0  0  0  0  0  0
    2.2500    3.8971    0.0000 C   0  0  0  0  0  0  0  0  0  0  0  0
    0.7500    3.8971    0.0000 C   0  0  0  0  0  0  0  0  0  0  0  0
    0.0000    5.1962    0.0000 C   0  0  0  0  0  0  0  0  0  0  0  0
    1.2990    5.9462    0.0000 C   0  0  0  0  0  0  0  0  0  0  0  0
   -1.2990    4.4462    0.0000 C   0  0  0  0  0  0  0  0  0  0  0  0
   -0.7500    6.4952    0.0000 C   0  0  0  0  0  0  0  0  0  0  0  0
    0.0000    2.5981    0.0000 C   0  0  0  0  0  0  0  0  0  0  0  0
   -1.5000    0.0000    0.0000 C   0  0  0  0  0  0  0  0  0  0  0  0
   -2.2500    1.2990    0.0000 C   0  0  0  0  0  0  0  0  0  0  0  0
   -3.7500    1.2990    0.0000 C   0  0  0  0  0  0  0  0  0  0  0  0
   -4.5000    0.0000    0.0000 C   0  0  0  0  0  0  0  0  0  0  0  0
   -3.7500   -1.2990    0.0000 C   0  0  0  0  0  0  0  0  0  0  0  0
   -4.5000   -2.5981    0.0000 C   0  0  0  0  0  0  0  0  0  0  0  0
   -5.7990   -1.8481    0.0000 C   0  0  0  0  0  0  0  0  0  0  0  0
   -3.2010   -3.3481    0.0000 C   0  0  0  0  0  0  0  0  0  0  0  0
   -5.2500   -3.8971    0.0000 C   0  0  0  0  0  0  0  0  0  0  0  0
   -2.2500   -1.2990    0.0000 C   0  0  0  0  0  0  0  0  0  0  0  0
    2.2500   -1.2990    0.0000 C   0  0  0  0  0  0  0  0  0  0  0  0
  1  2  1  0
  2  3  1  0
  2  4  1  0
  2  5  1  0
  5  6  2  0
  6  7  1  0
  7  8  2  0
  8  9  1  0
  9 10  1  0
 10 11  1  0
 11 12  2  0
 12 13  1  0
 13 14  2  0
 14 15  1  0
 15 16  1  0
 16 17  1  0
 16 18  1  0
 16 19  1  0
 15 20  2  0
 10 21  1  0
 21 22  2  0
 22 23  1  0
 23 24  2  0
 24 25  1  0
 25 26  1  0
 26 27  1  0
 26 28  1  0
 26 29  1  0
 25 30  2  0
  9 31  2  0
 31  5  1  0
 20 11  1  0
 30 21  1  0
M  END
>  <linear_selectivity>  (477) 
48

>  <denticity>  (477) 
1

>  <ligand_class>  (477) 
phosphine

$$$$
P(2-tBu-Ph)3_120C_xylene
     RDKit          2D

 31 33  0  0  0  0  0  0  0  0999 V2000
    4.5000   -4.0981    0.0000 C   0  0  0  0  0  0  0  0  0  0  0  0
    4.5000   -2.5981    0.0000 C   0  0  0  0  0  0  0  0  0  0  0  0
    4.5000   -1.0981    0.0000 C   0  0  0  0  0  0  0  0  0  0  0  0
    6.0000   -2.5981    0.0000 C   0  0  0  0  0  0  0  0  0  0  0  0
    3.0000   -2.5981    0.0000 C   0  0  0  0  0  0  0  0  0  0  0  0
    2.2500   -3.8971    0.0000 C   0  0  0  0  0  0  0  0  0  0  0  0
    0.7500   -3.8971    0.0000 C   0  0  0  0  0  0  0  0  0  0  0  0
   -0.0000   -2.5981    0.0000 C   0  0  0  0  0  0  0  0  0  0  0  0
    0.7500   -1.2990    0.0000 C   0  0  0  0  0  0  0  0  0  0  0  0
    0.0000    0.0000    0.0000 P   0  0  0  0  0  0  0  0  0  0  0  0
    0.7500    1.2990    0.0000 C   0  0  0  0  0  0  0  0  0  0  0  0
    2.2500    1.2990    0.0000 C   0  0  0  0  0  0  0  0  0  0  0  0
    3.0000    2.5981    0.0000 C   0  0  0  0  0  0  0  0  0  0  0  0
    2.2500    3.8971    0.0000 C   0  0  0  0  0  0  0  0  0  0  0  0
    0.7500    3.8971    0.0000 C   0  0  0  0  0  0  0  0  0  0  0  0
    0.0000    5.1962    0.0000 C   0  0  0  0  0  0  0  0  0  0  0  0
    1.2990    5.9462    0.0000 C   0  0  0  0  0  0  0  0  0  0  0  0
   -1.2990    4.4462    0.0000 C   0  0  0  0  0  0  0  0  0  0  0  0
   -0.7500    6.4952    0.0000 C   0  0  0  0  0  0  0  0  0  0  0  0
    0.0000    2.5981    0.0000 C   0  0  0  0  0  0  0  0  0  0  0  0
   -1.5000    0.0000    0.0000 C   0  0  0  0  0  0  0  0  0  0  0  0
   -2.2500    1.2990    0.0000 C   0  0  0  0  0  0  0  0  0  0  0  0
   -3.7500    1.2990    0.0000 C   0  0  0  0  0  0  0  0  0  0  0  0
   -4.5000    0.0000    0.0000 C   0  0  0  0  0  0  0  0  0  0  0  0
   -3.7500   -1.2990    0.0000 C   0  0  0  0  0  0  0  0  0  0  0  0
   -4.5000   -2.5981    0.0000 C   0  0  0  0  0  0  0  0  0  0  0  0
   -5.7990   -1.8481    0.0000 C   0  0  0  0  0  0  0  0  0  0  0  0
   -3.2010   -3.3481    0.0000 C   0  0  0  0  0  0  0  0  0  0  0  0
   -5.2500   -3.8971    0.0000 C   0  0  0  0  0  0  0  0  0  0  0  0
   -2.2500   -1.2990    0.0000 C   0  0  0  0  0  0  0  0  0  0  0  0
    2.2500   -1.2990    0.0000 C   0  0  0  0  0  0  0  0  0  0  0  0
  1  2  1  0
  2  3  1  0
  2  4  1  0
  2  5  1  0
  5  6  2  0
  6  7  1  0
  7  8  2  0
  8  9  1  0
  9 10  1  0
 10 11  1  0
 11 12  2  0
 12 13  1  0
 13 14  2  0
 14 15  1  0
 15 16  1  0
 16 17  1  0
 16 18  1  0
 16 19  1  0
 15 20  2  0
 10 21  1  0
 21 22  2  0
 22 23  1  0
 23 24  2  0
 24 25  1  0
 25 26  1  0
 26 27  1  0
 26 28  1  0
 26 29  1  0
 25 30  2  0
  9 31  2  0
 31  5  1  0
 20 11  1  0
 30 21  1  0
M  END
>  <linear_selectivity>  (478) 
49

>  <denticity>  (478) 
1

>  <ligand_class>  (478) 
phosphine

$$$$
P(2-tBu-Ph)3_130C_toluene
     RDKit          2D

 31 33  0  0  0  0  0  0  0  0999 V2000
    4.5000   -4.0981    0.0000 C   0  0  0  0  0  0  0  0  0  0  0  0
    4.5000   -2.5981    0.0000 C   0  0  0  0  0  0  0  0  0  0  0  0
    4.5000   -1.0981    0.0000 C   0  0  0  0  0  0  0  0  0  0  0  0
    6.0000   -2.5981    0.0000 C   0  0  0  0  0  0  0  0  0  0  0  0
    3.0000   -2.5981    0.0000 C   0  0  0  0  0  0  0  0  0  0  0  0
    2.2500   -3.8971    0.0000 C   0  0  0  0  0  0  0  0  0  0  0  0
    0.7500   -3.8971    0.0000 C   0  0  0  0  0  0  0  0  0  0  0  0
   -0.0000   -2.5981    0.0000 C   0  0  0  0  0  0  0  0  0  0  0  0
    0.7500   -1.2990    0.0000 C   0  0  0  0  0  0  0  0  0  0  0  0
    0.0000    0.0000    0.0000 P   0  0  0  0  0  0  0  0  0  0  0  0
    0.7500    1.2990    0.0000 C   0  0  0  0  0  0  0  0  0  0  0  0
    2.2500    1.2990    0.0000 C   0  0  0  0  0  0  0  0  0  0  0  0
    3.0000    2.5981    0.0000 C   0  0  0  0  0  0  0  0  0  0  0  0
    2.2500    3.8971    0.0000 C   0  0  0  0  0  0  0  0  0  0  0  0
    0.7500    3.8971    0.0000 C   0  0  0  0  0  0  0  0  0  0  0  0
    0.0000    5.1962    0.0000 C   0  0  0  0  0  0  0  0  0  0  0  0
    1.2990    5.9462    0.0000 C   0  0  0  0  0  0  0  0  0  0  0  0
   -1.2990    4.4462    0.0000 C   0  0  0  0  0  0  0  0  0  0  0  0
   -0.7500    6.4952    0.0000 C   0  0  0  0  0  0  0  0  0  0  0  0
    0.0000    2.5981    0.0000 C   0  0  0  0  0  0  0  0  0  0  0  0
   -1.5000    0.0000    0.0000 C   0  0  0  0  0  0  0  0  0  0  0  0
   -2.2500    1.2990    0.0000 C   0  0  0  0  0  0  0  0  0  0  0  0
   -3.7500    1.2990    0.0000 C   0  0  0  0  0  0  0  0  0  0  0  0
   -4.5000    0.0000    0.0000 C   0  0  0  0  0  0  0  0  0  0  0  0
   -3.7500   -1.2990    0.0000 C   0  0  0  0  0  0  0  0  0  0  0  0
   -4.5000   -2.5981    0.0000 C   0  0  0  0  0  0  0  0  0  0  0  0
   -5.7990   -1.8481    0.0000 C   0  0  0  0  0  0  0  0  0  0  0  0
   -3.2010   -3.3481    0.0000 C   0  0  0  0  0  0  0  0  0  0  0  0
   -5.2500   -3.8971    0.0000 C   0  0  0  0  0  0  0  0  0  0  0  0
   -2.2500   -1.2990    0.0000 C   0  0  0  0  0  0  0  0  0  0  0  0
    2.2500   -1.2990    0.0000 C   0  0  0  0  0  0  0  0  0  0  0  0
  1  2  1  0
  2  3  1  0
  2  4  1  0
  2  5  1  0
  5  6  2  0
  6  7  1  0
  7  8  2  0
  8  9  1  0
  9 10  1  0
 10 11  1  0
 11 12  2  0
 12 13  1  0
 13 14  2  0
 14 15  1  0
 15 16  1  0
 16 17  1  0
 16 18  1  0
 16 19  1  0
 15 20  2  0
 10 21  1  0
 21 22  2  0
 22 23  1  0
 23 24  2  0
 24 25  1  0
 25 26  1  0
 26 27  1  0
 26 28  1  0
 26 29  1  0
 25 30  2  0
  9 31  2  0
 31  5  1  0
 20 11  1  0
 30 21  1  0
M  END
>  <linear_selectivity>  (479) 
48

>  <denticity>  (479) 
1

>  <ligand_class>  (479) 
phosphine

$$$$
P(2-tBu-Ph)3_130C_THF
     RDKit          2D

 31 33  0  0  0  0  0  0  0  0999 V2000
    4.5000   -4.0981    0.0000 C   0  0  0  0  0  0  0  0  0  0  0  0
    4.5000   -2.5981    0.0000 C   0  0  0  0  0  0  0  0  0  0  0  0
    4.5000   -1.0981    0.0000 C   0  0  0  0  0  0  0  0  0  0  0  0
    6.0000   -2.5981    0.0000 C   0  0  0  0  0  0  0  0  0  0  0  0
    3.0000   -2.5981    0.0000 C   0  0  0  0  0  0  0  0  0  0  0  0
    2.2500   -3.8971    0.0000 C   0  0  0  0  0  0  0  0  0  0  0  0
    0.7500   -3.8971    0.0000 C   0  0  0  0  0  0  0  0  0  0  0  0
   -0.0000   -2.5981    0.0000 C   0  0  0  0  0  0  0  0  0  0  0  0
    0.7500   -1.2990    0.0000 C   0  0  0  0  0  0  0  0  0  0  0  0
    0.0000    0.0000    0.0000 P   0  0  0  0  0  0  0  0  0  0  0  0
    0.7500    1.2990    0.0000 C   0  0  0  0  0  0  0  0  0  0  0  0
    2.2500    1.2990    0.0000 C   0  0  0  0  0  0  0  0  0  0  0  0
    3.0000    2.5981    0.0000 C   0  0  0  0  0  0  0  0  0  0  0  0
    2.2500    3.8971    0.0000 C   0  0  0  0  0  0  0  0  0  0  0  0
    0.7500    3.8971    0.0000 C   0  0  0  0  0  0  0  0  0  0  0  0
    0.0000    5.1962    0.0000 C   0  0  0  0  0  0  0  0  0  0  0  0
    1.2990    5.9462    0.0000 C   0  0  0  0  0  0  0  0  0  0  0  0
   -1.2990    4.4462    0.0000 C   0  0  0  0  0  0  0  0  0  0  0  0
   -0.7500    6.4952    0.0000 C   0  0  0  0  0  0  0  0  0  0  0  0
    0.0000    2.5981    0.0000 C   0  0  0  0  0  0  0  0  0  0  0  0
   -1.5000    0.0000    0.0000 C   0  0  0  0  0  0  0  0  0  0  0  0
   -2.2500    1.2990    0.0000 C   0  0  0  0  0  0  0  0  0  0  0  0
   -3.7500    1.2990    0.0000 C   0  0  0  0  0  0  0  0  0  0  0  0
   -4.5000    0.0000    0.0000 C   0  0  0  0  0  0  0  0  0  0  0  0
   -3.7500   -1.2990    0.0000 C   0  0  0  0  0  0  0  0  0  0  0  0
   -4.5000   -2.5981    0.0000 C   0  0  0  0  0  0  0  0  0  0  0  0
   -5.7990   -1.8481    0.0000 C   0  0  0  0  0  0  0  0  0  0  0  0
   -3.2010   -3.3481    0.0000 C   0  0  0  0  0  0  0  0  0  0  0  0
   -5.2500   -3.8971    0.0000 C   0  0  0  0  0  0  0  0  0  0  0  0
   -2.2500   -1.2990    0.0000 C   0  0  0  0  0  0  0  0  0  0  0  0
    2.2500   -1.2990    0.0000 C   0  0  0  0  0  0  0  0  0  0  0  0
  1  2  1  0
  2  3  1  0
  2  4  1  0
  2  5  1  0
  5  6  2  0
  6  7  1  0
  7  8  2  0
  8  9  1  0
  9 10  1  0
 10 11  1  0
 11 12  2  0
 12 13  1  0
 13 14  2  0
 14 15  1  0
 15 16  1  0
 16 17  1  0
 16 18  1  0
 16 19  1  0
 15 20  2  0
 10 21  1  0
 21 22  2  0
 22 23  1  0
 23 24  2  0
 24 25  1  0
 25 26  1  0
 26 27  1  0
 26 28  1  0
 26 29  1  0
 25 30  2  0
  9 31  2  0
 31  5  1  0
 20 11  1  0
 30 21  1  0
M  END
>  <linear_selectivity>  (480) 
43

>  <denticity>  (480) 
1

>  <ligand_class>  (480) 
phosphine

$$$$
P(2-tBu-Ph)3_130C_benzene
     RDKit          2D

 31 33  0  0  0  0  0  0  0  0999 V2000
    4.5000   -4.0981    0.0000 C   0  0  0  0  0  0  0  0  0  0  0  0
    4.5000   -2.5981    0.0000 C   0  0  0  0  0  0  0  0  0  0  0  0
    4.5000   -1.0981    0.0000 C   0  0  0  0  0  0  0  0  0  0  0  0
    6.0000   -2.5981    0.0000 C   0  0  0  0  0  0  0  0  0  0  0  0
    3.0000   -2.5981    0.0000 C   0  0  0  0  0  0  0  0  0  0  0  0
    2.2500   -3.8971    0.0000 C   0  0  0  0  0  0  0  0  0  0  0  0
    0.7500   -3.8971    0.0000 C   0  0  0  0  0  0  0  0  0  0  0  0
   -0.0000   -2.5981    0.0000 C   0  0  0  0  0  0  0  0  0  0  0  0
    0.7500   -1.2990    0.0000 C   0  0  0  0  0  0  0  0  0  0  0  0
    0.0000    0.0000    0.0000 P   0  0  0  0  0  0  0  0  0  0  0  0
    0.7500    1.2990    0.0000 C   0  0  0  0  0  0  0  0  0  0  0  0
    2.2500    1.2990    0.0000 C   0  0  0  0  0  0  0  0  0  0  0  0
    3.0000    2.5981    0.0000 C   0  0  0  0  0  0  0  0  0  0  0  0
    2.2500    3.8971    0.0000 C   0  0  0  0  0  0  0  0  0  0  0  0
    0.7500    3.8971    0.0000 C   0  0  0  0  0  0  0  0  0  0  0  0
    0.0000    5.1962    0.0000 C   0  0  0  0  0  0  0  0  0  0  0  0
    1.2990    5.9462    0.0000 C   0  0  0  0  0  0  0  0  0  0  0  0
   -1.2990    4.4462    0.0000 C   0  0  0  0  0  0  0  0  0  0  0  0
   -0.7500    6.4952    0.0000 C   0  0  0  0  0  0  0  0  0  0  0  0
    0.0000    2.5981    0.0000 C   0  0  0  0  0  0  0  0  0  0  0  0
   -1.5000    0.0000    0.0000 C   0  0  0  0  0  0  0  0  0  0  0  0
   -2.2500    1.2990    0.0000 C   0  0  0  0  0  0  0  0  0  0  0  0
   -3.7500    1.2990    0.0000 C   0  0  0  0  0  0  0  0  0  0  0  0
   -4.5000    0.0000    0.0000 C   0  0  0  0  0  0  0  0  0  0  0  0
   -3.7500   -1.2990    0.0000 C   0  0  0  0  0  0  0  0  0  0  0  0
   -4.5000   -2.5981    0.0000 C   0  0  0  0  0  0  0  0  0  0  0  0
   -5.7990   -1.8481    0.0000 C   0  0  0  0  0  0  0  0  0  0  0  0
   -3.2010   -3.3481    0.0000 C   0  0  0  0  0  0  0  0  0  0  0  0
   -5.2500   -3.8971    0.0000 C   0  0  0  0  0  0  0  0  0  0  0  0
   -2.2500   -1.2990    0.0000 C   0  0  0  0  0  0  0  0  0  0  0  0
    2.2500   -1.2990    0.0000 C   0  0  0  0  0  0  0  0  0  0  0  0
  1  2  1  0
  2  3  1  0
  2  4  1  0
  2  5  1  0
  5  6  2  0
  6  7  1  0
  7  8  2  0
  8  9  1  0
  9 10  1  0
 10 11  1  0
 11 12  2  0
 12 13  1  0
 13 14  2  0
 14 15  1  0
 15 16  1  0
 16 17  1  0
 16 18  1  0
 16 19  1  0
 15 20  2  0
 10 21  1  0
 21 22  2  0
 22 23  1  0
 23 24  2  0
 24 25  1  0
 25 26  1  0
 26 27  1  0
 26 28  1  0
 26 29  1  0
 25 30  2  0
  9 31  2  0
 31  5  1  0
 20 11  1  0
 30 21  1  0
M  END
>  <linear_selectivity>  (481) 
47

>  <denticity>  (481) 
1

>  <ligand_class>  (481) 
phosphine

$$$$
P(2-tBu-Ph)3_130C_xylene
     RDKit          2D

 31 33  0  0  0  0  0  0  0  0999 V2000
    4.5000   -4.0981    0.0000 C   0  0  0  0  0  0  0  0  0  0  0  0
    4.5000   -2.5981    0.0000 C   0  0  0  0  0  0  0  0  0  0  0  0
    4.5000   -1.0981    0.0000 C   0  0  0  0  0  0  0  0  0  0  0  0
    6.0000   -2.5981    0.0000 C   0  0  0  0  0  0  0  0  0  0  0  0
    3.0000   -2.5981    0.0000 C   0  0  0  0  0  0  0  0  0  0  0  0
    2.2500   -3.8971    0.0000 C   0  0  0  0  0  0  0  0  0  0  0  0
    0.7500   -3.8971    0.0000 C   0  0  0  0  0  0  0  0  0  0  0  0
   -0.0000   -2.5981    0.0000 C   0  0  0  0  0  0  0  0  0  0  0  0
    0.7500   -1.2990    0.0000 C   0  0  0  0  0  0  0  0  0  0  0  0
    0.0000    0.0000    0.0000 P   0  0  0  0  0  0  0  0  0  0  0  0
    0.7500    1.2990    0.0000 C   0  0  0  0  0  0  0  0  0  0  0  0
    2.2500    1.2990    0.0000 C   0  0  0  0  0  0  0  0  0  0  0  0
    3.0000    2.5981    0.0000 C   0  0  0  0  0  0  0  0  0  0  0  0
    2.2500    3.8971    0.0000 C   0  0  0  0  0  0  0  0  0  0  0  0
    0.7500    3.8971    0.0000 C   0  0  0  0  0  0  0  0  0  0  0  0
    0.0000    5.1962    0.0000 C   0  0  0  0  0  0  0  0  0  0  0  0
    1.2990    5.9462    0.0000 C   0  0  0  0  0  0  0  0  0  0  0  0
   -1.2990    4.4462    0.0000 C   0  0  0  0  0  0  0  0  0  0  0  0
   -0.7500    6.4952    0.0000 C   0  0  0  0  0  0  0  0  0  0  0  0
    0.0000    2.5981    0.0000 C   0  0  0  0  0  0  0  0  0  0  0  0
   -1.5000    0.0000    0.0000 C   0  0  0  0  0  0  0  0  0  0  0  0
   -2.2500    1.2990    0.0000 C   0  0  0  0  0  0  0  0  0  0  0  0
   -3.7500    1.2990    0.0000 C   0  0  0  0  0  0  0  0  0  0  0  0
   -4.5000    0.0000    0.0000 C   0  0  0  0  0  0  0  0  0  0  0  0
   -3.7500   -1.2990    0.0000 C   0  0  0  0  0  0  0  0  0  0  0  0
   -4.5000   -2.5981    0.0000 C   0  0  0  0  0  0  0  0  0  0  0  0
   -5.7990   -1.8481    0.0000 C   0  0  0  0  0  0  0  0  0  0  0  0
   -3.2010   -3.3481    0.0000 C   0  0  0  0  0  0  0  0  0  0  0  0
   -5.2500   -3.8971    0.0000 C   0  0  0  0  0  0  0  0  0  0  0  0
   -2.2500   -1.2990    0.0000 C   0  0  0  0  0  0  0  0  0  0  0  0
    2.2500   -1.2990    0.0000 C   0  0  0  0  0  0  0  0  0  0  0  0
  1  2  1  0
  2  3  1  0
  2  4  1  0
  2  5  1  0
  5  6  2  0
  6  7  1  0
  7  8  2  0
  8  9  1  0
  9 10  1  0
 10 11  1  0
 11 12  2  0
 12 13  1  0
 13 14  2  0
 14 15  1  0
 15 16  1  0
 16 17  1  0
 16 18  1  0
 16 19  1  0
 15 20  2  0
 10 21  1  0
 21 22  2  0
 22 23  1  0
 23 24  2  0
 24 25  1  0
 25 26  1  0
 26 27  1  0
 26 28  1  0
 26 29  1  0
 25 30  2  0
  9 31  2  0
 31  5  1  0
 20 11  1  0
 30 21  1  0
M  END
>  <linear_selectivity>  (482) 
45

>  <denticity>  (482) 
1

>  <ligand_class>  (482) 
phosphine

$$$$
P(OPh)3
     RDKit          2D

 22 24  0  0  0  0  0  0  0  0999 V2000
    5.2500   -1.2990    0.0000 C   0  0  0  0  0  0  0  0  0  0  0  0
    4.5000   -2.5981    0.0000 C   0  0  0  0  0  0  0  0  0  0  0  0
    3.0000   -2.5981    0.0000 C   0  0  0  0  0  0  0  0  0  0  0  0
    2.2500   -1.2990    0.0000 C   0  0  0  0  0  0  0  0  0  0  0  0
    0.7500   -1.2990    0.0000 O   0  0  0  0  0  0  0  0  0  0  0  0
    0.0000    0.0000    0.0000 P   0  0  0  0  0  0  0  0  0  0  0  0
   -1.5000    0.0000    0.0000 O   0  0  0  0  0  0  0  0  0  0  0  0
   -2.2500   -1.2990    0.0000 C   0  0  0  0  0  0  0  0  0  0  0  0
   -1.5000   -2.5981    0.0000 C   0  0  0  0  0  0  0  0  0  0  0  0
   -2.2500   -3.8971    0.0000 C   0  0  0  0  0  0  0  0  0  0  0  0
   -3.7500   -3.8971    0.0000 C   0  0  0  0  0  0  0  0  0  0  0  0
   -4.5000   -2.5981    0.0000 C   0  0  0  0  0  0  0  0  0  0  0  0
   -3.7500   -1.2990    0.0000 C   0  0  0  0  0  0  0  0  0  0  0  0
    0.7500    1.2990    0.0000 O   0  0  0  0  0  0  0  0  0  0  0  0
    0.0000    2.5981    0.0000 C   0  0  0  0  0  0  0  0  0  0  0  0
    0.7500    3.8971    0.0000 C   0  0  0  0  0  0  0  0  0  0  0  0
    0.0000    5.1962    0.0000 C   0  0  0  0  0  0  0  0  0  0  0  0
   -1.5000    5.1962    0.0000 C   0  0  0  0  0  0  0  0  0  0  0  0
   -2.2500    3.8971    0.0000 C   0  0  0  0  0  0  0  0  0  0  0  0
   -1.5000    2.5981    0.0000 C   0  0  0  0  0  0  0  0  0  0  0  0
    3.0000    0.0000    0.0000 C   0  0  0  0  0  0  0  0  0  0  0  0
    4.5000    0.0000    0.0000 C   0  0  0  0  0  0  0  0  0  0  0  0
  1  2  2  0
  2  3  1  0
  3  4  2  0
  4  5  1  0
  5  6  1  0
  6  7  1  0
  7  8  1  0
  8  9  2  0
  9 10  1  0
 10 11  2  0
 11 12  1  0
 12 13  2  0
  6 14  1  0
 14 15  1  0
 15 16  2  0
 16 17  1  0
 17 18  2  0
 18 19  1  0
 19 20  2  0
  4 21  1  0
 21 22  2  0
 22  1  1  0
 13  8  1  0
 20 15  1  0
M  END
>  <linear_selectivity>  (483) 
38

>  <denticity>  (483) 
1

>  <ligand_class>  (483) 
phosphite

$$$$
P(OPh)3_70C_toluene
     RDKit          2D

 22 24  0  0  0  0  0  0  0  0999 V2000
    5.2500   -1.2990    0.0000 C   0  0  0  0  0  0  0  0  0  0  0  0
    4.5000   -2.5981    0.0000 C   0  0  0  0  0  0  0  0  0  0  0  0
    3.0000   -2.5981    0.0000 C   0  0  0  0  0  0  0  0  0  0  0  0
    2.2500   -1.2990    0.0000 C   0  0  0  0  0  0  0  0  0  0  0  0
    0.7500   -1.2990    0.0000 O   0  0  0  0  0  0  0  0  0  0  0  0
    0.0000    0.0000    0.0000 P   0  0  0  0  0  0  0  0  0  0  0  0
   -1.5000    0.0000    0.0000 O   0  0  0  0  0  0  0  0  0  0  0  0
   -2.2500   -1.2990    0.0000 C   0  0  0  0  0  0  0  0  0  0  0  0
   -1.5000   -2.5981    0.0000 C   0  0  0  0  0  0  0  0  0  0  0  0
   -2.2500   -3.8971    0.0000 C   0  0  0  0  0  0  0  0  0  0  0  0
   -3.7500   -3.8971    0.0000 C   0  0  0  0  0  0  0  0  0  0  0  0
   -4.5000   -2.5981    0.0000 C   0  0  0  0  0  0  0  0  0  0  0  0
   -3.7500   -1.2990    0.0000 C   0  0  0  0  0  0  0  0  0  0  0  0
    0.7500    1.2990    0.0000 O   0  0  0  0  0  0  0  0  0  0  0  0
    0.0000    2.5981    0.0000 C   0  0  0  0  0  0  0  0  0  0  0  0
    0.7500    3.8971    0.0000 C   0  0  0  0  0  0  0  0  0  0  0  0
    0.0000    5.1962    0.0000 C   0  0  0  0  0  0  0  0  0  0  0  0
   -1.5000    5.1962    0.0000 C   0  0  0  0  0  0  0  0  0  0  0  0
   -2.2500    3.8971    0.0000 C   0  0  0  0  0  0  0  0  0  0  0  0
   -1.5000    2.5981    0.0000 C   0  0  0  0  0  0  0  0  0  0  0  0
    3.0000    0.0000    0.0000 C   0  0  0  0  0  0  0  0  0  0  0  0
    4.5000    0.0000    0.0000 C   0  0  0  0  0  0  0  0  0  0  0  0
  1  2  2  0
  2  3  1  0
  3  4  2  0
  4  5  1  0
  5  6  1  0
  6  7  1  0
  7  8  1  0
  8  9  2  0
  9 10  1  0
 10 11  2  0
 11 12  1  0
 12 13  2  0
  6 14  1  0
 14 15  1  0
 15 16  2  0
 16 17  1  0
 17 18  2  0
 18 19  1  0
 19 20  2  0
  4 21  1  0
 21 22  2  0
 22  1  1  0
 13  8  1  0
 20 15  1  0
M  END
>  <linear_selectivity>  (484) 
44

>  <denticity>  (484) 
1

>  <ligand_class>  (484) 
phosphite

$$$$
P(OPh)3_70C_THF
     RDKit          2D

 22 24  0  0  0  0  0  0  0  0999 V2000
    5.2500   -1.2990    0.0000 C   0  0  0  0  0  0  0  0  0  0  0  0
    4.5000   -2.5981    0.0000 C   0  0  0  0  0  0  0  0  0  0  0  0
    3.0000   -2.5981    0.0000 C   0  0  0  0  0  0  0  0  0  0  0  0
    2.2500   -1.2990    0.0000 C   0  0  0  0  0  0  0  0  0  0  0  0
    0.7500   -1.2990    0.0000 O   0  0  0  0  0  0  0  0  0  0  0  0
    0.0000    0.0000    0.0000 P   0  0  0  0  0  0  0  0  0  0  0  0
   -1.5000    0.0000    0.0000 O   0  0  0  0  0  0  0  0  0  0  0  0
   -2.2500   -1.2990    0.0000 C   0  0  0  0  0  0  0  0  0  0  0  0
   -1.5000   -2.5981    0.0000 C   0  0  0  0  0  0  0  0  0  0  0  0
   -2.2500   -3.8971    0.0000 C   0  0  0  0  0  0  0  0  0  0  0  0
   -3.7500   -3.8971    0.0000 C   0  0  0  0  0  0  0  0  0  0  0  0
   -4.5000   -2.5981    0.0000 C   0  0  0  0  0  0  0  0  0  0  0  0
   -3.7500   -1.2990    0.0000 C   0  0  0  0  0  0  0  0  0  0  0  0
    0.7500    1.2990    0.0000 O   0  0  0  0  0  0  0  0  0  0  0  0
    0.0000    2.5981    0.0000 C   0  0  0  0  0  0  0  0  0  0  0  0
    0.7500    3.8971    0.0000 C   0  0  0  0  0  0  0  0  0  0  0  0
    0.0000    5.1962    0.0000 C   0  0  0  0  0  0  0  0  0  0  0  0
   -1.5000    5.1962    0.0000 C   0  0  0  0  0  0  0  0  0  0  0  0
   -2.2500    3.8971    0.0000 C   0  0  0  0  0  0  0  0  0  0  0  0
   -1.5000    2.5981    0.0000 C   0  0  0  0  0  0  0  0  0  0  0  0
    3.0000    0.0000    0.0000 C   0  0  0  0  0  0  0  0  0  0  0  0
    4.5000    0.0000    0.0000 C   0  0  0  0  0  0  0  0  0  0  0  0
  1  2  2  0
  2  3  1  0
  3  4  2  0
  4  5  1  0
  5  6  1  0
  6  7  1  0
  7  8  1  0
  8  9  2  0
  9 10  1  0
 10 11  2  0
 11 12  1  0
 12 13  2  0
  6 14  1  0
 14 15  1  0
 15 16  2  0
 16 17  1  0
 17 18  2  0
 18 19  1  0
 19 20  2  0
  4 21  1  0
 21 22  2  0
 22  1  1  0
 13  8  1  0
 20 15  1  0
M  END
>  <linear_selectivity>  (485) 
38

>  <denticity>  (485) 
1

>  <ligand_class>  (485) 
phosphite

$$$$
P(OPh)3_70C_dioxane
     RDKit          2D

 22 24  0  0  0  0  0  0  0  0999 V2000
    5.2500   -1.2990    0.0000 C   0  0  0  0  0  0  0  0  0  0  0  0
    4.5000   -2.5981    0.0000 C   0  0  0  0  0  0  0  0  0  0  0  0
    3.0000   -2.5981    0.0000 C   0  0  0  0  0  0  0  0  0  0  0  0
    2.2500   -1.2990    0.0000 C   0  0  0  0  0  0  0  0  0  0  0  0
    0.7500   -1.2990    0.0000 O   0  0  0  0  0  0  0  0  0  0  0  0
    0.0000    0.0000    0.0000 P   0  0  0  0  0  0  0  0  0  0  0  0
   -1.5000    0.0000    0.0000 O   0  0  0  0  0  0  0  0  0  0  0  0
   -2.2500   -1.2990    0.0000 C   0  0  0  0  0  0  0  0  0  0  0  0
   -1.5000   -2.5981    0.0000 C   0  0  0  0  0  0  0  0  0  0  0  0
   -2.2500   -3.8971    0.0000 C   0  0  0  0  0  0  0  0  0  0  0  0
   -3.7500   -3.8971    0.0000 C   0  0  0  0  0  0  0  0  0  0  0  0
   -4.5000   -2.5981    0.0000 C   0  0  0  0  0  0  0  0  0  0  0  0
   -3.7500   -1.2990    0.0000 C   0  0  0  0  0  0  0  0  0  0  0  0
    0.7500    1.2990    0.0000 O   0  0  0  0  0  0  0  0  0  0  0  0
    0.0000    2.5981    0.0000 C   0  0  0  0  0  0  0  0  0  0  0  0
    0.7500    3.8971    0.0000 C   0  0  0  0  0  0  0  0  0  0  0  0
    0.0000    5.1962    0.0000 C   0  0  0  0  0  0  0  0  0  0  0  0
   -1.5000    5.1962    0.0000 C   0  0  0  0  0  0  0  0  0  0  0  0
   -2.2500    3.8971    0.0000 C   0  0  0  0  0  0  0  0  0  0  0  0
   -1.5000    2.5981    0.0000 C   0  0  0  0  0  0  0  0  0  0  0  0
    3.0000    0.0000    0.0000 C   0  0  0  0  0  0  0  0  0  0  0  0
    4.5000    0.0000    0.0000 C   0  0  0  0  0  0  0  0  0  0  0  0
  1  2  2  0
  2  3  1  0
  3  4  2  0
  4  5  1  0
  5  6  1  0
  6  7  1  0
  7  8  1  0
  8  9  2  0
  9 10  1  0
 10 11  2  0
 11 12  1  0
 12 13  2  0
  6 14  1  0
 14 15  1  0
 15 16  2  0
 16 17  1  0
 17 18  2  0
 18 19  1  0
 19 20  2  0
  4 21  1  0
 21 22  2  0
 22  1  1  0
 13  8  1  0
 20 15  1  0
M  END
>  <linear_selectivity>  (486) 
40

>  <denticity>  (486) 
1

>  <ligand_class>  (486) 
phosphite

$$$$
P(OPh)3_70C_benzene
     RDKit          2D

 22 24  0  0  0  0  0  0  0  0999 V2000
    5.2500   -1.2990    0.0000 C   0  0  0  0  0  0  0  0  0  0  0  0
    4.5000   -2.5981    0.0000 C   0  0  0  0  0  0  0  0  0  0  0  0
    3.0000   -2.5981    0.0000 C   0  0  0  0  0  0  0  0  0  0  0  0
    2.2500   -1.2990    0.0000 C   0  0  0  0  0  0  0  0  0  0  0  0
    0.7500   -1.2990    0.0000 O   0  0  0  0  0  0  0  0  0  0  0  0
    0.0000    0.0000    0.0000 P   0  0  0  0  0  0  0  0  0  0  0  0
   -1.5000    0.0000    0.0000 O   0  0  0  0  0  0  0  0  0  0  0  0
   -2.2500   -1.2990    0.0000 C   0  0  0  0  0  0  0  0  0  0  0  0
   -1.5000   -2.5981    0.0000 C   0  0  0  0  0  0  0  0  0  0  0  0
   -2.2500   -3.8971    0.0000 C   0  0  0  0  0  0  0  0  0  0  0  0
   -3.7500   -3.8971    0.0000 C   0  0  0  0  0  0  0  0  0  0  0  0
   -4.5000   -2.5981    0.0000 C   0  0  0  0  0  0  0  0  0  0  0  0
   -3.7500   -1.2990    0.0000 C   0  0  0  0  0  0  0  0  0  0  0  0
    0.7500    1.2990    0.0000 O   0  0  0  0  0  0  0  0  0  0  0  0
    0.0000    2.5981    0.0000 C   0  0  0  0  0  0  0  0  0  0  0  0
    0.7500    3.8971    0.0000 C   0  0  0  0  0  0  0  0  0  0  0  0
    0.0000    5.1962    0.0000 C   0  0  0  0  0  0  0  0  0  0  0  0
   -1.5000    5.1962    0.0000 C   0  0  0  0  0  0  0  0  0  0  0  0
   -2.2500    3.8971    0.0000 C   0  0  0  0  0  0  0  0  0  0  0  0
   -1.5000    2.5981    0.0000 C   0  0  0  0  0  0  0  0  0  0  0  0
    3.0000    0.0000    0.0000 C   0  0  0  0  0  0  0  0  0  0  0  0
    4.5000    0.0000    0.0000 C   0  0  0  0  0  0  0  0  0  0  0  0
  1  2  2  0
  2  3  1  0
  3  4  2  0
  4  5  1  0
  5  6  1  0
  6  7  1  0
  7  8  1  0
  8  9  2  0
  9 10  1  0
 10 11  2  0
 11 12  1  0
 12 13  2  0
  6 14  1  0
 14 15  1  0
 15 16  2  0
 16 17  1  0
 17 18  2  0
 18 19  1  0
 19 20  2  0
  4 21  1  0
 21 22  2  0
 22  1  1  0
 13  8  1  0
 20 15  1  0
M  END
>  <linear_selectivity>  (487) 
42

>  <denticity>  (487) 
1

>  <ligand_class>  (487) 
phosphite

$$$$
P(OPh)3_80C_toluene
     RDKit          2D

 22 24  0  0  0  0  0  0  0  0999 V2000
    5.2500   -1.2990    0.0000 C   0  0  0  0  0  0  0  0  0  0  0  0
    4.5000   -2.5981    0.0000 C   0  0  0  0  0  0  0  0  0  0  0  0
    3.0000   -2.5981    0.0000 C   0  0  0  0  0  0  0  0  0  0  0  0
    2.2500   -1.2990    0.0000 C   0  0  0  0  0  0  0  0  0  0  0  0
    0.7500   -1.2990    0.0000 O   0  0  0  0  0  0  0  0  0  0  0  0
    0.0000    0.0000    0.0000 P   0  0  0  0  0  0  0  0  0  0  0  0
   -1.5000    0.0000    0.0000 O   0  0  0  0  0  0  0  0  0  0  0  0
   -2.2500   -1.2990    0.0000 C   0  0  0  0  0  0  0  0  0  0  0  0
   -1.5000   -2.5981    0.0000 C   0  0  0  0  0  0  0  0  0  0  0  0
   -2.2500   -3.8971    0.0000 C   0  0  0  0  0  0  0  0  0  0  0  0
   -3.7500   -3.8971    0.0000 C   0  0  0  0  0  0  0  0  0  0  0  0
   -4.5000   -2.5981    0.0000 C   0  0  0  0  0  0  0  0  0  0  0  0
   -3.7500   -1.2990    0.0000 C   0  0  0  0  0  0  0  0  0  0  0  0
    0.7500    1.2990    0.0000 O   0  0  0  0  0  0  0  0  0  0  0  0
    0.0000    2.5981    0.0000 C   0  0  0  0  0  0  0  0  0  0  0  0
    0.7500    3.8971    0.0000 C   0  0  0  0  0  0  0  0  0  0  0  0
    0.0000    5.1962    0.0000 C   0  0  0  0  0  0  0  0  0  0  0  0
   -1.5000    5.1962    0.0000 C   0  0  0  0  0  0  0  0  0  0  0  0
   -2.2500    3.8971    0.0000 C   0  0  0  0  0  0  0  0  0  0  0  0
   -1.5000    2.5981    0.0000 C   0  0  0  0  0  0  0  0  0  0  0  0
    3.0000    0.0000    0.0000 C   0  0  0  0  0  0  0  0  0  0  0  0
    4.5000    0.0000    0.0000 C   0  0  0  0  0  0  0  0  0  0  0  0
  1  2  2  0
  2  3  1  0
  3  4  2  0
  4  5  1  0
  5  6  1  0
  6  7  1  0
  7  8  1  0
  8  9  2  0
  9 10  1  0
 10 11  2  0
 11 12  1  0
 12 13  2  0
  6 14  1  0
 14 15  1  0
 15 16  2  0
 16 17  1  0
 17 18  2  0
 18 19  1  0
 19 20  2  0
  4 21  1  0
 21 22  2  0
 22  1  1  0
 13  8  1  0
 20 15  1  0
M  END
>  <linear_selectivity>  (488) 
42

>  <denticity>  (488) 
1

>  <ligand_class>  (488) 
phosphite

$$$$
P(OPh)3_80C_THF
     RDKit          2D

 22 24  0  0  0  0  0  0  0  0999 V2000
    5.2500   -1.2990    0.0000 C   0  0  0  0  0  0  0  0  0  0  0  0
    4.5000   -2.5981    0.0000 C   0  0  0  0  0  0  0  0  0  0  0  0
    3.0000   -2.5981    0.0000 C   0  0  0  0  0  0  0  0  0  0  0  0
    2.2500   -1.2990    0.0000 C   0  0  0  0  0  0  0  0  0  0  0  0
    0.7500   -1.2990    0.0000 O   0  0  0  0  0  0  0  0  0  0  0  0
    0.0000    0.0000    0.0000 P   0  0  0  0  0  0  0  0  0  0  0  0
   -1.5000    0.0000    0.0000 O   0  0  0  0  0  0  0  0  0  0  0  0
   -2.2500   -1.2990    0.0000 C   0  0  0  0  0  0  0  0  0  0  0  0
   -1.5000   -2.5981    0.0000 C   0  0  0  0  0  0  0  0  0  0  0  0
   -2.2500   -3.8971    0.0000 C   0  0  0  0  0  0  0  0  0  0  0  0
   -3.7500   -3.8971    0.0000 C   0  0  0  0  0  0  0  0  0  0  0  0
   -4.5000   -2.5981    0.0000 C   0  0  0  0  0  0  0  0  0  0  0  0
   -3.7500   -1.2990    0.0000 C   0  0  0  0  0  0  0  0  0  0  0  0
    0.7500    1.2990    0.0000 O   0  0  0  0  0  0  0  0  0  0  0  0
    0.0000    2.5981    0.0000 C   0  0  0  0  0  0  0  0  0  0  0  0
    0.7500    3.8971    0.0000 C   0  0  0  0  0  0  0  0  0  0  0  0
    0.0000    5.1962    0.0000 C   0  0  0  0  0  0  0  0  0  0  0  0
   -1.5000    5.1962    0.0000 C   0  0  0  0  0  0  0  0  0  0  0  0
   -2.2500    3.8971    0.0000 C   0  0  0  0  0  0  0  0  0  0  0  0
   -1.5000    2.5981    0.0000 C   0  0  0  0  0  0  0  0  0  0  0  0
    3.0000    0.0000    0.0000 C   0  0  0  0  0  0  0  0  0  0  0  0
    4.5000    0.0000    0.0000 C   0  0  0  0  0  0  0  0  0  0  0  0
  1  2  2  0
  2  3  1  0
  3  4  2  0
  4  5  1  0
  5  6  1  0
  6  7  1  0
  7  8  1  0
  8  9  2  0
  9 10  1  0
 10 11  2  0
 11 12  1  0
 12 13  2  0
  6 14  1  0
 14 15  1  0
 15 16  2  0
 16 17  1  0
 17 18  2  0
 18 19  1  0
 19 20  2  0
  4 21  1  0
 21 22  2  0
 22  1  1  0
 13  8  1  0
 20 15  1  0
M  END
>  <linear_selectivity>  (489) 
39

>  <denticity>  (489) 
1

>  <ligand_class>  (489) 
phosphite

$$$$
P(OPh)3_80C_dioxane
     RDKit          2D

 22 24  0  0  0  0  0  0  0  0999 V2000
    5.2500   -1.2990    0.0000 C   0  0  0  0  0  0  0  0  0  0  0  0
    4.5000   -2.5981    0.0000 C   0  0  0  0  0  0  0  0  0  0  0  0
    3.0000   -2.5981    0.0000 C   0  0  0  0  0  0  0  0  0  0  0  0
    2.2500   -1.2990    0.0000 C   0  0  0  0  0  0  0  0  0  0  0  0
    0.7500   -1.2990    0.0000 O   0  0  0  0  0  0  0  0  0  0  0  0
    0.0000    0.0000    0.0000 P   0  0  0  0  0  0  0  0  0  0  0  0
   -1.5000    0.0000    0.0000 O   0  0  0  0  0  0  0  0  0  0  0  0
   -2.2500   -1.2990    0.0000 C   0  0  0  0  0  0  0  0  0  0  0  0
   -1.5000   -2.5981    0.0000 C   0  0  0  0  0  0  0  0  0  0  0  0
   -2.2500   -3.8971    0.0000 C   0  0  0  0  0  0  0  0  0  0  0  0
   -3.7500   -3.8971    0.0000 C   0  0  0  0  0  0  0  0  0  0  0  0
   -4.5000   -2.5981    0.0000 C   0  0  0  0  0  0  0  0  0  0  0  0
   -3.7500   -1.2990    0.0000 C   0  0  0  0  0  0  0  0  0  0  0  0
    0.7500    1.2990    0.0000 O   0  0  0  0  0  0  0  0  0  0  0  0
    0.0000    2.5981    0.0000 C   0  0  0  0  0  0  0  0  0  0  0  0
    0.7500    3.8971    0.0000 C   0  0  0  0  0  0  0  0  0  0  0  0
    0.0000    5.1962    0.0000 C   0  0  0  0  0  0  0  0  0  0  0  0
   -1.5000    5.1962    0.0000 C   0  0  0  0  0  0  0  0  0  0  0  0
   -2.2500    3.8971    0.0000 C   0  0  0  0  0  0  0  0  0  0  0  0
   -1.5000    2.5981    0.0000 C   0  0  0  0  0  0  0  0  0  0  0  0
    3.0000    0.0000    0.0000 C   0  0  0  0  0  0  0  0  0  0  0  0
    4.5000    0.0000    0.0000 C   0  0  0  0  0  0  0  0  0  0  0  0
  1  2  2  0
  2  3  1  0
  3  4  2  0
  4  5  1  0
  5  6  1  0
  6  7  1  0
  7  8  1  0
  8  9  2  0
  9 10  1  0
 10 11  2  0
 11 12  1  0
 12 13  2  0
  6 14  1  0
 14 15  1  0
 15 16  2  0
 16 17  1  0
 17 18  2  0
 18 19  1  0
 19 20  2  0
  4 21  1  0
 21 22  2  0
 22  1  1  0
 13  8  1  0
 20 15  1  0
M  END
>  <linear_selectivity>  (490) 
43

>  <denticity>  (490) 
1

>  <ligand_class>  (490) 
phosphite

$$$$
P(OPh)3_80C_benzene
     RDKit          2D

 22 24  0  0  0  0  0  0  0  0999 V2000
    5.2500   -1.2990    0.0000 C   0  0  0  0  0  0  0  0  0  0  0  0
    4.5000   -2.5981    0.0000 C   0  0  0  0  0  0  0  0  0  0  0  0
    3.0000   -2.5981    0.0000 C   0  0  0  0  0  0  0  0  0  0  0  0
    2.2500   -1.2990    0.0000 C   0  0  0  0  0  0  0  0  0  0  0  0
    0.7500   -1.2990    0.0000 O   0  0  0  0  0  0  0  0  0  0  0  0
    0.0000    0.0000    0.0000 P   0  0  0  0  0  0  0  0  0  0  0  0
   -1.5000    0.0000    0.0000 O   0  0  0  0  0  0  0  0  0  0  0  0
   -2.2500   -1.2990    0.0000 C   0  0  0  0  0  0  0  0  0  0  0  0
   -1.5000   -2.5981    0.0000 C   0  0  0  0  0  0  0  0  0  0  0  0
   -2.2500   -3.8971    0.0000 C   0  0  0  0  0  0  0  0  0  0  0  0
   -3.7500   -3.8971    0.0000 C   0  0  0  0  0  0  0  0  0  0  0  0
   -4.5000   -2.5981    0.0000 C   0  0  0  0  0  0  0  0  0  0  0  0
   -3.7500   -1.2990    0.0000 C   0  0  0  0  0  0  0  0  0  0  0  0
    0.7500    1.2990    0.0000 O   0  0  0  0  0  0  0  0  0  0  0  0
    0.0000    2.5981    0.0000 C   0  0  0  0  0  0  0  0  0  0  0  0
    0.7500    3.8971    0.0000 C   0  0  0  0  0  0  0  0  0  0  0  0
    0.0000    5.1962    0.0000 C   0  0  0  0  0  0  0  0  0  0  0  0
   -1.5000    5.1962    0.0000 C   0  0  0  0  0  0  0  0  0  0  0  0
   -2.2500    3.8971    0.0000 C   0  0  0  0  0  0  0  0  0  0  0  0
   -1.5000    2.5981    0.0000 C   0  0  0  0  0  0  0  0  0  0  0  0
    3.0000    0.0000    0.0000 C   0  0  0  0  0  0  0  0  0  0  0  0
    4.5000    0.0000    0.0000 C   0  0  0  0  0  0  0  0  0  0  0  0
  1  2  2  0
  2  3  1  0
  3  4  2  0
  4  5  1  0
  5  6  1  0
  6  7  1  0
  7  8  1  0
  8  9  2  0
  9 10  1  0
 10 11  2  0
 11 12  1  0
 12 13  2  0
  6 14  1  0
 14 15  1  0
 15 16  2  0
 16 17  1  0
 17 18  2  0
 18 19  1  0
 19 20  2  0
  4 21  1  0
 21 22  2  0
 22  1  1  0
 13  8  1  0
 20 15  1  0
M  END
>  <linear_selectivity>  (491) 
45

>  <denticity>  (491) 
1

>  <ligand_class>  (491) 
phosphite

$$$$
P(OPh)3_80C_xylene
     RDKit          2D

 22 24  0  0  0  0  0  0  0  0999 V2000
    5.2500   -1.2990    0.0000 C   0  0  0  0  0  0  0  0  0  0  0  0
    4.5000   -2.5981    0.0000 C   0  0  0  0  0  0  0  0  0  0  0  0
    3.0000   -2.5981    0.0000 C   0  0  0  0  0  0  0  0  0  0  0  0
    2.2500   -1.2990    0.0000 C   0  0  0  0  0  0  0  0  0  0  0  0
    0.7500   -1.2990    0.0000 O   0  0  0  0  0  0  0  0  0  0  0  0
    0.0000    0.0000    0.0000 P   0  0  0  0  0  0  0  0  0  0  0  0
   -1.5000    0.0000    0.0000 O   0  0  0  0  0  0  0  0  0  0  0  0
   -2.2500   -1.2990    0.0000 C   0  0  0  0  0  0  0  0  0  0  0  0
   -1.5000   -2.5981    0.0000 C   0  0  0  0  0  0  0  0  0  0  0  0
   -2.2500   -3.8971    0.0000 C   0  0  0  0  0  0  0  0  0  0  0  0
   -3.7500   -3.8971    0.0000 C   0  0  0  0  0  0  0  0  0  0  0  0
   -4.5000   -2.5981    0.0000 C   0  0  0  0  0  0  0  0  0  0  0  0
   -3.7500   -1.2990    0.0000 C   0  0  0  0  0  0  0  0  0  0  0  0
    0.7500    1.2990    0.0000 O   0  0  0  0  0  0  0  0  0  0  0  0
    0.0000    2.5981    0.0000 C   0  0  0  0  0  0  0  0  0  0  0  0
    0.7500    3.8971    0.0000 C   0  0  0  0  0  0  0  0  0  0  0  0
    0.0000    5.1962    0.0000 C   0  0  0  0  0  0  0  0  0  0  0  0
   -1.5000    5.1962    0.0000 C   0  0  0  0  0  0  0  0  0  0  0  0
   -2.2500    3.8971    0.0000 C   0  0  0  0  0  0  0  0  0  0  0  0
   -1.5000    2.5981    0.0000 C   0  0  0  0  0  0  0  0  0  0  0  0
    3.0000    0.0000    0.0000 C   0  0  0  0  0  0  0  0  0  0  0  0
    4.5000    0.0000    0.0000 C   0  0  0  0  0  0  0  0  0  0  0  0
  1  2  2  0
  2  3  1  0
  3  4  2  0
  4  5  1  0
  5  6  1  0
  6  7  1  0
  7  8  1  0
  8  9  2  0
  9 10  1  0
 10 11  2  0
 11 12  1  0
 12 13  2  0
  6 14  1  0
 14 15  1  0
 15 16  2  0
 16 17  1  0
 17 18  2  0
 18 19  1  0
 19 20  2  0
  4 21  1  0
 21 22  2  0
 22  1  1  0
 13  8  1  0
 20 15  1  0
M  END
>  <linear_selectivity>  (492) 
40

>  <denticity>  (492) 
1

>  <ligand_class>  (492) 
phosphite

$$$$
P(OPh)3_90C_toluene
     RDKit          2D

 22 24  0  0  0  0  0  0  0  0999 V2000
    5.2500   -1.2990    0.0000 C   0  0  0  0  0  0  0  0  0  0  0  0
    4.5000   -2.5981    0.0000 C   0  0  0  0  0  0  0  0  0  0  0  0
    3.0000   -2.5981    0.0000 C   0  0  0  0  0  0  0  0  0  0  0  0
    2.2500   -1.2990    0.0000 C   0  0  0  0  0  0  0  0  0  0  0  0
    0.7500   -1.2990    0.0000 O   0  0  0  0  0  0  0  0  0  0  0  0
    0.0000    0.0000    0.0000 P   0  0  0  0  0  0  0  0  0  0  0  0
   -1.5000    0.0000    0.0000 O   0  0  0  0  0  0  0  0  0  0  0  0
   -2.2500   -1.2990    0.0000 C   0  0  0  0  0  0  0  0  0  0  0  0
   -1.5000   -2.5981    0.0000 C   0  0  0  0  0  0  0  0  0  0  0  0
   -2.2500   -3.8971    0.0000 C   0  0  0  0  0  0  0  0  0  0  0  0
   -3.7500   -3.8971    0.0000 C   0  0  0  0  0  0  0  0  0  0  0  0
   -4.5000   -2.5981    0.0000 C   0  0  0  0  0  0  0  0  0  0  0  0
   -3.7500   -1.2990    0.0000 C   0  0  0  0  0  0  0  0  0  0  0  0
    0.7500    1.2990    0.0000 O   0  0  0  0  0  0  0  0  0  0  0  0
    0.0000    2.5981    0.0000 C   0  0  0  0  0  0  0  0  0  0  0  0
    0.7500    3.8971    0.0000 C   0  0  0  0  0  0  0  0  0  0  0  0
    0.0000    5.1962    0.0000 C   0  0  0  0  0  0  0  0  0  0  0  0
   -1.5000    5.1962    0.0000 C   0  0  0  0  0  0  0  0  0  0  0  0
   -2.2500    3.8971    0.0000 C   0  0  0  0  0  0  0  0  0  0  0  0
   -1.5000    2.5981    0.0000 C   0  0  0  0  0  0  0  0  0  0  0  0
    3.0000    0.0000    0.0000 C   0  0  0  0  0  0  0  0  0  0  0  0
    4.5000    0.0000    0.0000 C   0  0  0  0  0  0  0  0  0  0  0  0
  1  2  2  0
  2  3  1  0
  3  4  2  0
  4  5  1  0
  5  6  1  0
  6  7  1  0
  7  8  1  0
  8  9  2  0
  9 10  1  0
 10 11  2  0
 11 12  1  0
 12 13  2  0
  6 14  1  0
 14 15  1  0
 15 16  2  0
 16 17  1  0
 17 18  2  0
 18 19  1  0
 19 20  2  0
  4 21  1  0
 21 22  2  0
 22  1  1  0
 13  8  1  0
 20 15  1  0
M  END
>  <linear_selectivity>  (493) 
43

>  <denticity>  (493) 
1

>  <ligand_class>  (493) 
phosphite

$$$$
P(OPh)3_90C_THF
     RDKit          2D

 22 24  0  0  0  0  0  0  0  0999 V2000
    5.2500   -1.2990    0.0000 C   0  0  0  0  0  0  0  0  0  0  0  0
    4.5000   -2.5981    0.0000 C   0  0  0  0  0  0  0  0  0  0  0  0
    3.0000   -2.5981    0.0000 C   0  0  0  0  0  0  0  0  0  0  0  0
    2.2500   -1.2990    0.0000 C   0  0  0  0  0  0  0  0  0  0  0  0
    0.7500   -1.2990    0.0000 O   0  0  0  0  0  0  0  0  0  0  0  0
    0.0000    0.0000    0.0000 P   0  0  0  0  0  0  0  0  0  0  0  0
   -1.5000    0.0000    0.0000 O   0  0  0  0  0  0  0  0  0  0  0  0
   -2.2500   -1.2990    0.0000 C   0  0  0  0  0  0  0  0  0  0  0  0
   -1.5000   -2.5981    0.0000 C   0  0  0  0  0  0  0  0  0  0  0  0
   -2.2500   -3.8971    0.0000 C   0  0  0  0  0  0  0  0  0  0  0  0
   -3.7500   -3.8971    0.0000 C   0  0  0  0  0  0  0  0  0  0  0  0
   -4.5000   -2.5981    0.0000 C   0  0  0  0  0  0  0  0  0  0  0  0
   -3.7500   -1.2990    0.0000 C   0  0  0  0  0  0  0  0  0  0  0  0
    0.7500    1.2990    0.0000 O   0  0  0  0  0  0  0  0  0  0  0  0
    0.0000    2.5981    0.0000 C   0  0  0  0  0  0  0  0  0  0  0  0
    0.7500    3.8971    0.0000 C   0  0  0  0  0  0  0  0  0  0  0  0
    0.0000    5.1962    0.0000 C   0  0  0  0  0  0  0  0  0  0  0  0
   -1.5000    5.1962    0.0000 C   0  0  0  0  0  0  0  0  0  0  0  0
   -2.2500    3.8971    0.0000 C   0  0  0  0  0  0  0  0  0  0  0  0
   -1.5000    2.5981    0.0000 C   0  0  0  0  0  0  0  0  0  0  0  0
    3.0000    0.0000    0.0000 C   0  0  0  0  0  0  0  0  0  0  0  0
    4.5000    0.0000    0.0000 C   0  0  0  0  0  0  0  0  0  0  0  0
  1  2  2  0
  2  3  1  0
  3  4  2  0
  4  5  1  0
  5  6  1  0
  6  7  1  0
  7  8  1  0
  8  9  2  0
  9 10  1  0
 10 11  2  0
 11 12  1  0
 12 13  2  0
  6 14  1  0
 14 15  1  0
 15 16  2  0
 16 17  1  0
 17 18  2  0
 18 19  1  0
 19 20  2  0
  4 21  1  0
 21 22  2  0
 22  1  1  0
 13  8  1  0
 20 15  1  0
M  END
>  <linear_selectivity>  (494) 
41

>  <denticity>  (494) 
1

>  <ligand_class>  (494) 
phosphite

$$$$
P(OPh)3_90C_dioxane
     RDKit          2D

 22 24  0  0  0  0  0  0  0  0999 V2000
    5.2500   -1.2990    0.0000 C   0  0  0  0  0  0  0  0  0  0  0  0
    4.5000   -2.5981    0.0000 C   0  0  0  0  0  0  0  0  0  0  0  0
    3.0000   -2.5981    0.0000 C   0  0  0  0  0  0  0  0  0  0  0  0
    2.2500   -1.2990    0.0000 C   0  0  0  0  0  0  0  0  0  0  0  0
    0.7500   -1.2990    0.0000 O   0  0  0  0  0  0  0  0  0  0  0  0
    0.0000    0.0000    0.0000 P   0  0  0  0  0  0  0  0  0  0  0  0
   -1.5000    0.0000    0.0000 O   0  0  0  0  0  0  0  0  0  0  0  0
   -2.2500   -1.2990    0.0000 C   0  0  0  0  0  0  0  0  0  0  0  0
   -1.5000   -2.5981    0.0000 C   0  0  0  0  0  0  0  0  0  0  0  0
   -2.2500   -3.8971    0.0000 C   0  0  0  0  0  0  0  0  0  0  0  0
   -3.7500   -3.8971    0.0000 C   0  0  0  0  0  0  0  0  0  0  0  0
   -4.5000   -2.5981    0.0000 C   0  0  0  0  0  0  0  0  0  0  0  0
   -3.7500   -1.2990    0.0000 C   0  0  0  0  0  0  0  0  0  0  0  0
    0.7500    1.2990    0.0000 O   0  0  0  0  0  0  0  0  0  0  0  0
    0.0000    2.5981    0.0000 C   0  0  0  0  0  0  0  0  0  0  0  0
    0.7500    3.8971    0.0000 C   0  0  0  0  0  0  0  0  0  0  0  0
    0.0000    5.1962    0.0000 C   0  0  0  0  0  0  0  0  0  0  0  0
   -1.5000    5.1962    0.0000 C   0  0  0  0  0  0  0  0  0  0  0  0
   -2.2500    3.8971    0.0000 C   0  0  0  0  0  0  0  0  0  0  0  0
   -1.5000    2.5981    0.0000 C   0  0  0  0  0  0  0  0  0  0  0  0
    3.0000    0.0000    0.0000 C   0  0  0  0  0  0  0  0  0  0  0  0
    4.5000    0.0000    0.0000 C   0  0  0  0  0  0  0  0  0  0  0  0
  1  2  2  0
  2  3  1  0
  3  4  2  0
  4  5  1  0
  5  6  1  0
  6  7  1  0
  7  8  1  0
  8  9  2  0
  9 10  1  0
 10 11  2  0
 11 12  1  0
 12 13  2  0
  6 14  1  0
 14 15  1  0
 15 16  2  0
 16 17  1  0
 17 18  2  0
 18 19  1  0
 19 20  2  0
  4 21  1  0
 21 22  2  0
 22  1  1  0
 13  8  1  0
 20 15  1  0
M  END
>  <linear_selectivity>  (495) 
38

>  <denticity>  (495) 
1

>  <ligand_class>  (495) 
phosphite

$$$$
P(OPh)3_90C_hexane
     RDKit          2D

 22 24  0  0  0  0  0  0  0  0999 V2000
    5.2500   -1.2990    0.0000 C   0  0  0  0  0  0  0  0  0  0  0  0
    4.5000   -2.5981    0.0000 C   0  0  0  0  0  0  0  0  0  0  0  0
    3.0000   -2.5981    0.0000 C   0  0  0  0  0  0  0  0  0  0  0  0
    2.2500   -1.2990    0.0000 C   0  0  0  0  0  0  0  0  0  0  0  0
    0.7500   -1.2990    0.0000 O   0  0  0  0  0  0  0  0  0  0  0  0
    0.0000    0.0000    0.0000 P   0  0  0  0  0  0  0  0  0  0  0  0
   -1.5000    0.0000    0.0000 O   0  0  0  0  0  0  0  0  0  0  0  0
   -2.2500   -1.2990    0.0000 C   0  0  0  0  0  0  0  0  0  0  0  0
   -1.5000   -2.5981    0.0000 C   0  0  0  0  0  0  0  0  0  0  0  0
   -2.2500   -3.8971    0.0000 C   0  0  0  0  0  0  0  0  0  0  0  0
   -3.7500   -3.8971    0.0000 C   0  0  0  0  0  0  0  0  0  0  0  0
   -4.5000   -2.5981    0.0000 C   0  0  0  0  0  0  0  0  0  0  0  0
   -3.7500   -1.2990    0.0000 C   0  0  0  0  0  0  0  0  0  0  0  0
    0.7500    1.2990    0.0000 O   0  0  0  0  0  0  0  0  0  0  0  0
    0.0000    2.5981    0.0000 C   0  0  0  0  0  0  0  0  0  0  0  0
    0.7500    3.8971    0.0000 C   0  0  0  0  0  0  0  0  0  0  0  0
    0.0000    5.1962    0.0000 C   0  0  0  0  0  0  0  0  0  0  0  0
   -1.5000    5.1962    0.0000 C   0  0  0  0  0  0  0  0  0  0  0  0
   -2.2500    3.8971    0.0000 C   0  0  0  0  0  0  0  0  0  0  0  0
   -1.5000    2.5981    0.0000 C   0  0  0  0  0  0  0  0  0  0  0  0
    3.0000    0.0000    0.0000 C   0  0  0  0  0  0  0  0  0  0  0  0
    4.5000    0.0000    0.0000 C   0  0  0  0  0  0  0  0  0  0  0  0
  1  2  2  0
  2  3  1  0
  3  4  2  0
  4  5  1  0
  5  6  1  0
  6  7  1  0
  7  8  1  0
  8  9  2  0
  9 10  1  0
 10 11  2  0
 11 12  1  0
 12 13  2  0
  6 14  1  0
 14 15  1  0
 15 16  2  0
 16 17  1  0
 17 18  2  0
 18 19  1  0
 19 20  2  0
  4 21  1  0
 21 22  2  0
 22  1  1  0
 13  8  1  0
 20 15  1  0
M  END
>  <linear_selectivity>  (496) 
38

>  <denticity>  (496) 
1

>  <ligand_class>  (496) 
phosphite

$$$$
P(OPh)3_90C_benzene
     RDKit          2D

 22 24  0  0  0  0  0  0  0  0999 V2000
    5.2500   -1.2990    0.0000 C   0  0  0  0  0  0  0  0  0  0  0  0
    4.5000   -2.5981    0.0000 C   0  0  0  0  0  0  0  0  0  0  0  0
    3.0000   -2.5981    0.0000 C   0  0  0  0  0  0  0  0  0  0  0  0
    2.2500   -1.2990    0.0000 C   0  0  0  0  0  0  0  0  0  0  0  0
    0.7500   -1.2990    0.0000 O   0  0  0  0  0  0  0  0  0  0  0  0
    0.0000    0.0000    0.0000 P   0  0  0  0  0  0  0  0  0  0  0  0
   -1.5000    0.0000    0.0000 O   0  0  0  0  0  0  0  0  0  0  0  0
   -2.2500   -1.2990    0.0000 C   0  0  0  0  0  0  0  0  0  0  0  0
   -1.5000   -2.5981    0.0000 C   0  0  0  0  0  0  0  0  0  0  0  0
   -2.2500   -3.8971    0.0000 C   0  0  0  0  0  0  0  0  0  0  0  0
   -3.7500   -3.8971    0.0000 C   0  0  0  0  0  0  0  0  0  0  0  0
   -4.5000   -2.5981    0.0000 C   0  0  0  0  0  0  0  0  0  0  0  0
   -3.7500   -1.2990    0.0000 C   0  0  0  0  0  0  0  0  0  0  0  0
    0.7500    1.2990    0.0000 O   0  0  0  0  0  0  0  0  0  0  0  0
    0.0000    2.5981    0.0000 C   0  0  0  0  0  0  0  0  0  0  0  0
    0.7500    3.8971    0.0000 C   0  0  0  0  0  0  0  0  0  0  0  0
    0.0000    5.1962    0.0000 C   0  0  0  0  0  0  0  0  0  0  0  0
   -1.5000    5.1962    0.0000 C   0  0  0  0  0  0  0  0  0  0  0  0
   -2.2500    3.8971    0.0000 C   0  0  0  0  0  0  0  0  0  0  0  0
   -1.5000    2.5981    0.0000 C   0  0  0  0  0  0  0  0  0  0  0  0
    3.0000    0.0000    0.0000 C   0  0  0  0  0  0  0  0  0  0  0  0
    4.5000    0.0000    0.0000 C   0  0  0  0  0  0  0  0  0  0  0  0
  1  2  2  0
  2  3  1  0
  3  4  2  0
  4  5  1  0
  5  6  1  0
  6  7  1  0
  7  8  1  0
  8  9  2  0
  9 10  1  0
 10 11  2  0
 11 12  1  0
 12 13  2  0
  6 14  1  0
 14 15  1  0
 15 16  2  0
 16 17  1  0
 17 18  2  0
 18 19  1  0
 19 20  2  0
  4 21  1  0
 21 22  2  0
 22  1  1  0
 13  8  1  0
 20 15  1  0
M  END
>  <linear_selectivity>  (497) 
43

>  <denticity>  (497) 
1

>  <ligand_class>  (497) 
phosphite

$$$$
P(OPh)3_100C_toluene
     RDKit          2D

 22 24  0  0  0  0  0  0  0  0999 V2000
    5.2500   -1.2990    0.0000 C   0  0  0  0  0  0  0  0  0  0  0  0
    4.5000   -2.5981    0.0000 C   0  0  0  0  0  0  0  0  0  0  0  0
    3.0000   -2.5981    0.0000 C   0  0  0  0  0  0  0  0  0  0  0  0
    2.2500   -1.2990    0.0000 C   0  0  0  0  0  0  0  0  0  0  0  0
    0.7500   -1.2990    0.0000 O   0  0  0  0  0  0  0  0  0  0  0  0
    0.0000    0.0000    0.0000 P   0  0  0  0  0  0  0  0  0  0  0  0
   -1.5000    0.0000    0.0000 O   0  0  0  0  0  0  0  0  0  0  0  0
   -2.2500   -1.2990    0.0000 C   0  0  0  0  0  0  0  0  0  0  0  0
   -1.5000   -2.5981    0.0000 C   0  0  0  0  0  0  0  0  0  0  0  0
   -2.2500   -3.8971    0.0000 C   0  0  0  0  0  0  0  0  0  0  0  0
   -3.7500   -3.8971    0.0000 C   0  0  0  0  0  0  0  0  0  0  0  0
   -4.5000   -2.5981    0.0000 C   0  0  0  0  0  0  0  0  0  0  0  0
   -3.7500   -1.2990    0.0000 C   0  0  0  0  0  0  0  0  0  0  0  0
    0.7500    1.2990    0.0000 O   0  0  0  0  0  0  0  0  0  0  0  0
    0.0000    2.5981    0.0000 C   0  0  0  0  0  0  0  0  0  0  0  0
    0.7500    3.8971    0.0000 C   0  0  0  0  0  0  0  0  0  0  0  0
    0.0000    5.1962    0.0000 C   0  0  0  0  0  0  0  0  0  0  0  0
   -1.5000    5.1962    0.0000 C   0  0  0  0  0  0  0  0  0  0  0  0
   -2.2500    3.8971    0.0000 C   0  0  0  0  0  0  0  0  0  0  0  0
   -1.5000    2.5981    0.0000 C   0  0  0  0  0  0  0  0  0  0  0  0
    3.0000    0.0000    0.0000 C   0  0  0  0  0  0  0  0  0  0  0  0
    4.5000    0.0000    0.0000 C   0  0  0  0  0  0  0  0  0  0  0  0
  1  2  2  0
  2  3  1  0
  3  4  2  0
  4  5  1  0
  5  6  1  0
  6  7  1  0
  7  8  1  0
  8  9  2  0
  9 10  1  0
 10 11  2  0
 11 12  1  0
 12 13  2  0
  6 14  1  0
 14 15  1  0
 15 16  2  0
 16 17  1  0
 17 18  2  0
 18 19  1  0
 19 20  2  0
  4 21  1  0
 21 22  2  0
 22  1  1  0
 13  8  1  0
 20 15  1  0
M  END
>  <linear_selectivity>  (498) 
37

>  <denticity>  (498) 
1

>  <ligand_class>  (498) 
phosphite

$$$$
P(OPh)3_100C_THF
     RDKit          2D

 22 24  0  0  0  0  0  0  0  0999 V2000
    5.2500   -1.2990    0.0000 C   0  0  0  0  0  0  0  0  0  0  0  0
    4.5000   -2.5981    0.0000 C   0  0  0  0  0  0  0  0  0  0  0  0
    3.0000   -2.5981    0.0000 C   0  0  0  0  0  0  0  0  0  0  0  0
    2.2500   -1.2990    0.0000 C   0  0  0  0  0  0  0  0  0  0  0  0
    0.7500   -1.2990    0.0000 O   0  0  0  0  0  0  0  0  0  0  0  0
    0.0000    0.0000    0.0000 P   0  0  0  0  0  0  0  0  0  0  0  0
   -1.5000    0.0000    0.0000 O   0  0  0  0  0  0  0  0  0  0  0  0
   -2.2500   -1.2990    0.0000 C   0  0  0  0  0  0  0  0  0  0  0  0
   -1.5000   -2.5981    0.0000 C   0  0  0  0  0  0  0  0  0  0  0  0
   -2.2500   -3.8971    0.0000 C   0  0  0  0  0  0  0  0  0  0  0  0
   -3.7500   -3.8971    0.0000 C   0  0  0  0  0  0  0  0  0  0  0  0
   -4.5000   -2.5981    0.0000 C   0  0  0  0  0  0  0  0  0  0  0  0
   -3.7500   -1.2990    0.0000 C   0  0  0  0  0  0  0  0  0  0  0  0
    0.7500    1.2990    0.0000 O   0  0  0  0  0  0  0  0  0  0  0  0
    0.0000    2.5981    0.0000 C   0  0  0  0  0  0  0  0  0  0  0  0
    0.7500    3.8971    0.0000 C   0  0  0  0  0  0  0  0  0  0  0  0
    0.0000    5.1962    0.0000 C   0  0  0  0  0  0  0  0  0  0  0  0
   -1.5000    5.1962    0.0000 C   0  0  0  0  0  0  0  0  0  0  0  0
   -2.2500    3.8971    0.0000 C   0  0  0  0  0  0  0  0  0  0  0  0
   -1.5000    2.5981    0.0000 C   0  0  0  0  0  0  0  0  0  0  0  0
    3.0000    0.0000    0.0000 C   0  0  0  0  0  0  0  0  0  0  0  0
    4.5000    0.0000    0.0000 C   0  0  0  0  0  0  0  0  0  0  0  0
  1  2  2  0
  2  3  1  0
  3  4  2  0
  4  5  1  0
  5  6  1  0
  6  7  1  0
  7  8  1  0
  8  9  2  0
  9 10  1  0
 10 11  2  0
 11 12  1  0
 12 13  2  0
  6 14  1  0
 14 15  1  0
 15 16  2  0
 16 17  1  0
 17 18  2  0
 18 19  1  0
 19 20  2  0
  4 21  1  0
 21 22  2  0
 22  1  1  0
 13  8  1  0
 20 15  1  0
M  END
>  <linear_selectivity>  (499) 
35

>  <denticity>  (499) 
1

>  <ligand_class>  (499) 
phosphite

$$$$
P(OPh)3_100C_dioxane
     RDKit          2D

 22 24  0  0  0  0  0  0  0  0999 V2000
    5.2500   -1.2990    0.0000 C   0  0  0  0  0  0  0  0  0  0  0  0
    4.5000   -2.5981    0.0000 C   0  0  0  0  0  0  0  0  0  0  0  0
    3.0000   -2.5981    0.0000 C   0  0  0  0  0  0  0  0  0  0  0  0
    2.2500   -1.2990    0.0000 C   0  0  0  0  0  0  0  0  0  0  0  0
    0.7500   -1.2990    0.0000 O   0  0  0  0  0  0  0  0  0  0  0  0
    0.0000    0.0000    0.0000 P   0  0  0  0  0  0  0  0  0  0  0  0
   -1.5000    0.0000    0.0000 O   0  0  0  0  0  0  0  0  0  0  0  0
   -2.2500   -1.2990    0.0000 C   0  0  0  0  0  0  0  0  0  0  0  0
   -1.5000   -2.5981    0.0000 C   0  0  0  0  0  0  0  0  0  0  0  0
   -2.2500   -3.8971    0.0000 C   0  0  0  0  0  0  0  0  0  0  0  0
   -3.7500   -3.8971    0.0000 C   0  0  0  0  0  0  0  0  0  0  0  0
   -4.5000   -2.5981    0.0000 C   0  0  0  0  0  0  0  0  0  0  0  0
   -3.7500   -1.2990    0.0000 C   0  0  0  0  0  0  0  0  0  0  0  0
    0.7500    1.2990    0.0000 O   0  0  0  0  0  0  0  0  0  0  0  0
    0.0000    2.5981    0.0000 C   0  0  0  0  0  0  0  0  0  0  0  0
    0.7500    3.8971    0.0000 C   0  0  0  0  0  0  0  0  0  0  0  0
    0.0000    5.1962    0.0000 C   0  0  0  0  0  0  0  0  0  0  0  0
   -1.5000    5.1962    0.0000 C   0  0  0  0  0  0  0  0  0  0  0  0
   -2.2500    3.8971    0.0000 C   0  0  0  0  0  0  0  0  0  0  0  0
   -1.5000    2.5981    0.0000 C   0  0  0  0  0  0  0  0  0  0  0  0
    3.0000    0.0000    0.0000 C   0  0  0  0  0  0  0  0  0  0  0  0
    4.5000    0.0000    0.0000 C   0  0  0  0  0  0  0  0  0  0  0  0
  1  2  2  0
  2  3  1  0
  3  4  2  0
  4  5  1  0
  5  6  1  0
  6  7  1  0
  7  8  1  0
  8  9  2  0
  9 10  1  0
 10 11  2  0
 11 12  1  0
 12 13  2  0
  6 14  1  0
 14 15  1  0
 15 16  2  0
 16 17  1  0
 17 18  2  0
 18 19  1  0
 19 20  2  0
  4 21  1  0
 21 22  2  0
 22  1  1  0
 13  8  1  0
 20 15  1  0
M  END
>  <linear_selectivity>  (500) 
36

>  <denticity>  (500) 
1

>  <ligand_class>  (500) 
phosphite

$$$$
P(OPh)3_100C_hexane
     RDKit          2D

 22 24  0  0  0  0  0  0  0  0999 V2000
    5.2500   -1.2990    0.0000 C   0  0  0  0  0  0  0  0  0  0  0  0
    4.5000   -2.5981    0.0000 C   0  0  0  0  0  0  0  0  0  0  0  0
    3.0000   -2.5981    0.0000 C   0  0  0  0  0  0  0  0  0  0  0  0
    2.2500   -1.2990    0.0000 C   0  0  0  0  0  0  0  0  0  0  0  0
    0.7500   -1.2990    0.0000 O   0  0  0  0  0  0  0  0  0  0  0  0
    0.0000    0.0000    0.0000 P   0  0  0  0  0  0  0  0  0  0  0  0
   -1.5000    0.0000    0.0000 O   0  0  0  0  0  0  0  0  0  0  0  0
   -2.2500   -1.2990    0.0000 C   0  0  0  0  0  0  0  0  0  0  0  0
   -1.5000   -2.5981    0.0000 C   0  0  0  0  0  0  0  0  0  0  0  0
   -2.2500   -3.8971    0.0000 C   0  0  0  0  0  0  0  0  0  0  0  0
   -3.7500   -3.8971    0.0000 C   0  0  0  0  0  0  0  0  0  0  0  0
   -4.5000   -2.5981    0.0000 C   0  0  0  0  0  0  0  0  0  0  0  0
   -3.7500   -1.2990    0.0000 C   0  0  0  0  0  0  0  0  0  0  0  0
    0.7500    1.2990    0.0000 O   0  0  0  0  0  0  0  0  0  0  0  0
    0.0000    2.5981    0.0000 C   0  0  0  0  0  0  0  0  0  0  0  0
    0.7500    3.8971    0.0000 C   0  0  0  0  0  0  0  0  0  0  0  0
    0.0000    5.1962    0.0000 C   0  0  0  0  0  0  0  0  0  0  0  0
   -1.5000    5.1962    0.0000 C   0  0  0  0  0  0  0  0  0  0  0  0
   -2.2500    3.8971    0.0000 C   0  0  0  0  0  0  0  0  0  0  0  0
   -1.5000    2.5981    0.0000 C   0  0  0  0  0  0  0  0  0  0  0  0
    3.0000    0.0000    0.0000 C   0  0  0  0  0  0  0  0  0  0  0  0
    4.5000    0.0000    0.0000 C   0  0  0  0  0  0  0  0  0  0  0  0
  1  2  2  0
  2  3  1  0
  3  4  2  0
  4  5  1  0
  5  6  1  0
  6  7  1  0
  7  8  1  0
  8  9  2  0
  9 10  1  0
 10 11  2  0
 11 12  1  0
 12 13  2  0
  6 14  1  0
 14 15  1  0
 15 16  2  0
 16 17  1  0
 17 18  2  0
 18 19  1  0
 19 20  2  0
  4 21  1  0
 21 22  2  0
 22  1  1  0
 13  8  1  0
 20 15  1  0
M  END
>  <linear_selectivity>  (501) 
41

>  <denticity>  (501) 
1

>  <ligand_class>  (501) 
phosphite

$$$$
P(OPh)3_100C_benzene
     RDKit          2D

 22 24  0  0  0  0  0  0  0  0999 V2000
    5.2500   -1.2990    0.0000 C   0  0  0  0  0  0  0  0  0  0  0  0
    4.5000   -2.5981    0.0000 C   0  0  0  0  0  0  0  0  0  0  0  0
    3.0000   -2.5981    0.0000 C   0  0  0  0  0  0  0  0  0  0  0  0
    2.2500   -1.2990    0.0000 C   0  0  0  0  0  0  0  0  0  0  0  0
    0.7500   -1.2990    0.0000 O   0  0  0  0  0  0  0  0  0  0  0  0
    0.0000    0.0000    0.0000 P   0  0  0  0  0  0  0  0  0  0  0  0
   -1.5000    0.0000    0.0000 O   0  0  0  0  0  0  0  0  0  0  0  0
   -2.2500   -1.2990    0.0000 C   0  0  0  0  0  0  0  0  0  0  0  0
   -1.5000   -2.5981    0.0000 C   0  0  0  0  0  0  0  0  0  0  0  0
   -2.2500   -3.8971    0.0000 C   0  0  0  0  0  0  0  0  0  0  0  0
   -3.7500   -3.8971    0.0000 C   0  0  0  0  0  0  0  0  0  0  0  0
   -4.5000   -2.5981    0.0000 C   0  0  0  0  0  0  0  0  0  0  0  0
   -3.7500   -1.2990    0.0000 C   0  0  0  0  0  0  0  0  0  0  0  0
    0.7500    1.2990    0.0000 O   0  0  0  0  0  0  0  0  0  0  0  0
    0.0000    2.5981    0.0000 C   0  0  0  0  0  0  0  0  0  0  0  0
    0.7500    3.8971    0.0000 C   0  0  0  0  0  0  0  0  0  0  0  0
    0.0000    5.1962    0.0000 C   0  0  0  0  0  0  0  0  0  0  0  0
   -1.5000    5.1962    0.0000 C   0  0  0  0  0  0  0  0  0  0  0  0
   -2.2500    3.8971    0.0000 C   0  0  0  0  0  0  0  0  0  0  0  0
   -1.5000    2.5981    0.0000 C   0  0  0  0  0  0  0  0  0  0  0  0
    3.0000    0.0000    0.0000 C   0  0  0  0  0  0  0  0  0  0  0  0
    4.5000    0.0000    0.0000 C   0  0  0  0  0  0  0  0  0  0  0  0
  1  2  2  0
  2  3  1  0
  3  4  2  0
  4  5  1  0
  5  6  1  0
  6  7  1  0
  7  8  1  0
  8  9  2  0
  9 10  1  0
 10 11  2  0
 11 12  1  0
 12 13  2  0
  6 14  1  0
 14 15  1  0
 15 16  2  0
 16 17  1  0
 17 18  2  0
 18 19  1  0
 19 20  2  0
  4 21  1  0
 21 22  2  0
 22  1  1  0
 13  8  1  0
 20 15  1  0
M  END
>  <linear_selectivity>  (502) 
41

>  <denticity>  (502) 
1

>  <ligand_class>  (502) 
phosphite

$$$$
P(OPh)3_110C_toluene
     RDKit          2D

 22 24  0  0  0  0  0  0  0  0999 V2000
    5.2500   -1.2990    0.0000 C   0  0  0  0  0  0  0  0  0  0  0  0
    4.5000   -2.5981    0.0000 C   0  0  0  0  0  0  0  0  0  0  0  0
    3.0000   -2.5981    0.0000 C   0  0  0  0  0  0  0  0  0  0  0  0
    2.2500   -1.2990    0.0000 C   0  0  0  0  0  0  0  0  0  0  0  0
    0.7500   -1.2990    0.0000 O   0  0  0  0  0  0  0  0  0  0  0  0
    0.0000    0.0000    0.0000 P   0  0  0  0  0  0  0  0  0  0  0  0
   -1.5000    0.0000    0.0000 O   0  0  0  0  0  0  0  0  0  0  0  0
   -2.2500   -1.2990    0.0000 C   0  0  0  0  0  0  0  0  0  0  0  0
   -1.5000   -2.5981    0.0000 C   0  0  0  0  0  0  0  0  0  0  0  0
   -2.2500   -3.8971    0.0000 C   0  0  0  0  0  0  0  0  0  0  0  0
   -3.7500   -3.8971    0.0000 C   0  0  0  0  0  0  0  0  0  0  0  0
   -4.5000   -2.5981    0.0000 C   0  0  0  0  0  0  0  0  0  0  0  0
   -3.7500   -1.2990    0.0000 C   0  0  0  0  0  0  0  0  0  0  0  0
    0.7500    1.2990    0.0000 O   0  0  0  0  0  0  0  0  0  0  0  0
    0.0000    2.5981    0.0000 C   0  0  0  0  0  0  0  0  0  0  0  0
    0.7500    3.8971    0.0000 C   0  0  0  0  0  0  0  0  0  0  0  0
    0.0000    5.1962    0.0000 C   0  0  0  0  0  0  0  0  0  0  0  0
   -1.5000    5.1962    0.0000 C   0  0  0  0  0  0  0  0  0  0  0  0
   -2.2500    3.8971    0.0000 C   0  0  0  0  0  0  0  0  0  0  0  0
   -1.5000    2.5981    0.0000 C   0  0  0  0  0  0  0  0  0  0  0  0
    3.0000    0.0000    0.0000 C   0  0  0  0  0  0  0  0  0  0  0  0
    4.5000    0.0000    0.0000 C   0  0  0  0  0  0  0  0  0  0  0  0
  1  2  2  0
  2  3  1  0
  3  4  2  0
  4  5  1  0
  5  6  1  0
  6  7  1  0
  7  8  1  0
  8  9  2  0
  9 10  1  0
 10 11  2  0
 11 12  1  0
 12 13  2  0
  6 14  1  0
 14 15  1  0
 15 16  2  0
 16 17  1  0
 17 18  2  0
 18 19  1  0
 19 20  2  0
  4 21  1  0
 21 22  2  0
 22  1  1  0
 13  8  1  0
 20 15  1  0
M  END
>  <linear_selectivity>  (503) 
38

>  <denticity>  (503) 
1

>  <ligand_class>  (503) 
phosphite

$$$$
P(OPh)3_110C_THF
     RDKit          2D

 22 24  0  0  0  0  0  0  0  0999 V2000
    5.2500   -1.2990    0.0000 C   0  0  0  0  0  0  0  0  0  0  0  0
    4.5000   -2.5981    0.0000 C   0  0  0  0  0  0  0  0  0  0  0  0
    3.0000   -2.5981    0.0000 C   0  0  0  0  0  0  0  0  0  0  0  0
    2.2500   -1.2990    0.0000 C   0  0  0  0  0  0  0  0  0  0  0  0
    0.7500   -1.2990    0.0000 O   0  0  0  0  0  0  0  0  0  0  0  0
    0.0000    0.0000    0.0000 P   0  0  0  0  0  0  0  0  0  0  0  0
   -1.5000    0.0000    0.0000 O   0  0  0  0  0  0  0  0  0  0  0  0
   -2.2500   -1.2990    0.0000 C   0  0  0  0  0  0  0  0  0  0  0  0
   -1.5000   -2.5981    0.0000 C   0  0  0  0  0  0  0  0  0  0  0  0
   -2.2500   -3.8971    0.0000 C   0  0  0  0  0  0  0  0  0  0  0  0
   -3.7500   -3.8971    0.0000 C   0  0  0  0  0  0  0  0  0  0  0  0
   -4.5000   -2.5981    0.0000 C   0  0  0  0  0  0  0  0  0  0  0  0
   -3.7500   -1.2990    0.0000 C   0  0  0  0  0  0  0  0  0  0  0  0
    0.7500    1.2990    0.0000 O   0  0  0  0  0  0  0  0  0  0  0  0
    0.0000    2.5981    0.0000 C   0  0  0  0  0  0  0  0  0  0  0  0
    0.7500    3.8971    0.0000 C   0  0  0  0  0  0  0  0  0  0  0  0
    0.0000    5.1962    0.0000 C   0  0  0  0  0  0  0  0  0  0  0  0
   -1.5000    5.1962    0.0000 C   0  0  0  0  0  0  0  0  0  0  0  0
   -2.2500    3.8971    0.0000 C   0  0  0  0  0  0  0  0  0  0  0  0
   -1.5000    2.5981    0.0000 C   0  0  0  0  0  0  0  0  0  0  0  0
    3.0000    0.0000    0.0000 C   0  0  0  0  0  0  0  0  0  0  0  0
    4.5000    0.0000    0.0000 C   0  0  0  0  0  0  0  0  0  0  0  0
  1  2  2  0
  2  3  1  0
  3  4  2  0
  4  5  1  0
  5  6  1  0
  6  7  1  0
  7  8  1  0
  8  9  2  0
  9 10  1  0
 10 11  2  0
 11 12  1  0
 12 13  2  0
  6 14  1  0
 14 15  1  0
 15 16  2  0
 16 17  1  0
 17 18  2  0
 18 19  1  0
 19 20  2  0
  4 21  1  0
 21 22  2  0
 22  1  1  0
 13  8  1  0
 20 15  1  0
M  END
>  <linear_selectivity>  (504) 
35

>  <denticity>  (504) 
1

>  <ligand_class>  (504) 
phosphite

$$$$
P(OPh)3_110C_dioxane
     RDKit          2D

 22 24  0  0  0  0  0  0  0  0999 V2000
    5.2500   -1.2990    0.0000 C   0  0  0  0  0  0  0  0  0  0  0  0
    4.5000   -2.5981    0.0000 C   0  0  0  0  0  0  0  0  0  0  0  0
    3.0000   -2.5981    0.0000 C   0  0  0  0  0  0  0  0  0  0  0  0
    2.2500   -1.2990    0.0000 C   0  0  0  0  0  0  0  0  0  0  0  0
    0.7500   -1.2990    0.0000 O   0  0  0  0  0  0  0  0  0  0  0  0
    0.0000    0.0000    0.0000 P   0  0  0  0  0  0  0  0  0  0  0  0
   -1.5000    0.0000    0.0000 O   0  0  0  0  0  0  0  0  0  0  0  0
   -2.2500   -1.2990    0.0000 C   0  0  0  0  0  0  0  0  0  0  0  0
   -1.5000   -2.5981    0.0000 C   0  0  0  0  0  0  0  0  0  0  0  0
   -2.2500   -3.8971    0.0000 C   0  0  0  0  0  0  0  0  0  0  0  0
   -3.7500   -3.8971    0.0000 C   0  0  0  0  0  0  0  0  0  0  0  0
   -4.5000   -2.5981    0.0000 C   0  0  0  0  0  0  0  0  0  0  0  0
   -3.7500   -1.2990    0.0000 C   0  0  0  0  0  0  0  0  0  0  0  0
    0.7500    1.2990    0.0000 O   0  0  0  0  0  0  0  0  0  0  0  0
    0.0000    2.5981    0.0000 C   0  0  0  0  0  0  0  0  0  0  0  0
    0.7500    3.8971    0.0000 C   0  0  0  0  0  0  0  0  0  0  0  0
    0.0000    5.1962    0.0000 C   0  0  0  0  0  0  0  0  0  0  0  0
   -1.5000    5.1962    0.0000 C   0  0  0  0  0  0  0  0  0  0  0  0
   -2.2500    3.8971    0.0000 C   0  0  0  0  0  0  0  0  0  0  0  0
   -1.5000    2.5981    0.0000 C   0  0  0  0  0  0  0  0  0  0  0  0
    3.0000    0.0000    0.0000 C   0  0  0  0  0  0  0  0  0  0  0  0
    4.5000    0.0000    0.0000 C   0  0  0  0  0  0  0  0  0  0  0  0
  1  2  2  0
  2  3  1  0
  3  4  2  0
  4  5  1  0
  5  6  1  0
  6  7  1  0
  7  8  1  0
  8  9  2  0
  9 10  1  0
 10 11  2  0
 11 12  1  0
 12 13  2  0
  6 14  1  0
 14 15  1  0
 15 16  2  0
 16 17  1  0
 17 18  2  0
 18 19  1  0
 19 20  2  0
  4 21  1  0
 21 22  2  0
 22  1  1  0
 13  8  1  0
 20 15  1  0
M  END
>  <linear_selectivity>  (505) 
36

>  <denticity>  (505) 
1

>  <ligand_class>  (505) 
phosphite

$$$$
P(OPh)3_110C_hexane
     RDKit          2D

 22 24  0  0  0  0  0  0  0  0999 V2000
    5.2500   -1.2990    0.0000 C   0  0  0  0  0  0  0  0  0  0  0  0
    4.5000   -2.5981    0.0000 C   0  0  0  0  0  0  0  0  0  0  0  0
    3.0000   -2.5981    0.0000 C   0  0  0  0  0  0  0  0  0  0  0  0
    2.2500   -1.2990    0.0000 C   0  0  0  0  0  0  0  0  0  0  0  0
    0.7500   -1.2990    0.0000 O   0  0  0  0  0  0  0  0  0  0  0  0
    0.0000    0.0000    0.0000 P   0  0  0  0  0  0  0  0  0  0  0  0
   -1.5000    0.0000    0.0000 O   0  0  0  0  0  0  0  0  0  0  0  0
   -2.2500   -1.2990    0.0000 C   0  0  0  0  0  0  0  0  0  0  0  0
   -1.5000   -2.5981    0.0000 C   0  0  0  0  0  0  0  0  0  0  0  0
   -2.2500   -3.8971    0.0000 C   0  0  0  0  0  0  0  0  0  0  0  0
   -3.7500   -3.8971    0.0000 C   0  0  0  0  0  0  0  0  0  0  0  0
   -4.5000   -2.5981    0.0000 C   0  0  0  0  0  0  0  0  0  0  0  0
   -3.7500   -1.2990    0.0000 C   0  0  0  0  0  0  0  0  0  0  0  0
    0.7500    1.2990    0.0000 O   0  0  0  0  0  0  0  0  0  0  0  0
    0.0000    2.5981    0.0000 C   0  0  0  0  0  0  0  0  0  0  0  0
    0.7500    3.8971    0.0000 C   0  0  0  0  0  0  0  0  0  0  0  0
    0.0000    5.1962    0.0000 C   0  0  0  0  0  0  0  0  0  0  0  0
   -1.5000    5.1962    0.0000 C   0  0  0  0  0  0  0  0  0  0  0  0
   -2.2500    3.8971    0.0000 C   0  0  0  0  0  0  0  0  0  0  0  0
   -1.5000    2.5981    0.0000 C   0  0  0  0  0  0  0  0  0  0  0  0
    3.0000    0.0000    0.0000 C   0  0  0  0  0  0  0  0  0  0  0  0
    4.5000    0.0000    0.0000 C   0  0  0  0  0  0  0  0  0  0  0  0
  1  2  2  0
  2  3  1  0
  3  4  2  0
  4  5  1  0
  5  6  1  0
  6  7  1  0
  7  8  1  0
  8  9  2  0
  9 10  1  0
 10 11  2  0
 11 12  1  0
 12 13  2  0
  6 14  1  0
 14 15  1  0
 15 16  2  0
 16 17  1  0
 17 18  2  0
 18 19  1  0
 19 20  2  0
  4 21  1  0
 21 22  2  0
 22  1  1  0
 13  8  1  0
 20 15  1  0
M  END
>  <linear_selectivity>  (506) 
38

>  <denticity>  (506) 
1

>  <ligand_class>  (506) 
phosphite

$$$$
P(OPh)3_110C_benzene
     RDKit          2D

 22 24  0  0  0  0  0  0  0  0999 V2000
    5.2500   -1.2990    0.0000 C   0  0  0  0  0  0  0  0  0  0  0  0
    4.5000   -2.5981    0.0000 C   0  0  0  0  0  0  0  0  0  0  0  0
    3.0000   -2.5981    0.0000 C   0  0  0  0  0  0  0  0  0  0  0  0
    2.2500   -1.2990    0.0000 C   0  0  0  0  0  0  0  0  0  0  0  0
    0.7500   -1.2990    0.0000 O   0  0  0  0  0  0  0  0  0  0  0  0
    0.0000    0.0000    0.0000 P   0  0  0  0  0  0  0  0  0  0  0  0
   -1.5000    0.0000    0.0000 O   0  0  0  0  0  0  0  0  0  0  0  0
   -2.2500   -1.2990    0.0000 C   0  0  0  0  0  0  0  0  0  0  0  0
   -1.5000   -2.5981    0.0000 C   0  0  0  0  0  0  0  0  0  0  0  0
   -2.2500   -3.8971    0.0000 C   0  0  0  0  0  0  0  0  0  0  0  0
   -3.7500   -3.8971    0.0000 C   0  0  0  0  0  0  0  0  0  0  0  0
   -4.5000   -2.5981    0.0000 C   0  0  0  0  0  0  0  0  0  0  0  0
   -3.7500   -1.2990    0.0000 C   0  0  0  0  0  0  0  0  0  0  0  0
    0.7500    1.2990    0.0000 O   0  0  0  0  0  0  0  0  0  0  0  0
    0.0000    2.5981    0.0000 C   0  0  0  0  0  0  0  0  0  0  0  0
    0.7500    3.8971    0.0000 C   0  0  0  0  0  0  0  0  0  0  0  0
    0.0000    5.1962    0.0000 C   0  0  0  0  0  0  0  0  0  0  0  0
   -1.5000    5.1962    0.0000 C   0  0  0  0  0  0  0  0  0  0  0  0
   -2.2500    3.8971    0.0000 C   0  0  0  0  0  0  0  0  0  0  0  0
   -1.5000    2.5981    0.0000 C   0  0  0  0  0  0  0  0  0  0  0  0
    3.0000    0.0000    0.0000 C   0  0  0  0  0  0  0  0  0  0  0  0
    4.5000    0.0000    0.0000 C   0  0  0  0  0  0  0  0  0  0  0  0
  1  2  2  0
  2  3  1  0
  3  4  2  0
  4  5  1  0
  5  6  1  0
  6  7  1  0
  7  8  1  0
  8  9  2  0
  9 10  1  0
 10 11  2  0
 11 12  1  0
 12 13  2  0
  6 14  1  0
 14 15  1  0
 15 16  2  0
 16 17  1  0
 17 18  2  0
 18 19  1  0
 19 20  2  0
  4 21  1  0
 21 22  2  0
 22  1  1  0
 13  8  1  0
 20 15  1  0
M  END
>  <linear_selectivity>  (507) 
35

>  <denticity>  (507) 
1

>  <ligand_class>  (507) 
phosphite

$$$$
P(OPh)3_110C_xylene
     RDKit          2D

 22 24  0  0  0  0  0  0  0  0999 V2000
    5.2500   -1.2990    0.0000 C   0  0  0  0  0  0  0  0  0  0  0  0
    4.5000   -2.5981    0.0000 C   0  0  0  0  0  0  0  0  0  0  0  0
    3.0000   -2.5981    0.0000 C   0  0  0  0  0  0  0  0  0  0  0  0
    2.2500   -1.2990    0.0000 C   0  0  0  0  0  0  0  0  0  0  0  0
    0.7500   -1.2990    0.0000 O   0  0  0  0  0  0  0  0  0  0  0  0
    0.0000    0.0000    0.0000 P   0  0  0  0  0  0  0  0  0  0  0  0
   -1.5000    0.0000    0.0000 O   0  0  0  0  0  0  0  0  0  0  0  0
   -2.2500   -1.2990    0.0000 C   0  0  0  0  0  0  0  0  0  0  0  0
   -1.5000   -2.5981    0.0000 C   0  0  0  0  0  0  0  0  0  0  0  0
   -2.2500   -3.8971    0.0000 C   0  0  0  0  0  0  0  0  0  0  0  0
   -3.7500   -3.8971    0.0000 C   0  0  0  0  0  0  0  0  0  0  0  0
   -4.5000   -2.5981    0.0000 C   0  0  0  0  0  0  0  0  0  0  0  0
   -3.7500   -1.2990    0.0000 C   0  0  0  0  0  0  0  0  0  0  0  0
    0.7500    1.2990    0.0000 O   0  0  0  0  0  0  0  0  0  0  0  0
    0.0000    2.5981    0.0000 C   0  0  0  0  0  0  0  0  0  0  0  0
    0.7500    3.8971    0.0000 C   0  0  0  0  0  0  0  0  0  0  0  0
    0.0000    5.1962    0.0000 C   0  0  0  0  0  0  0  0  0  0  0  0
   -1.5000    5.1962    0.0000 C   0  0  0  0  0  0  0  0  0  0  0  0
   -2.2500    3.8971    0.0000 C   0  0  0  0  0  0  0  0  0  0  0  0
   -1.5000    2.5981    0.0000 C   0  0  0  0  0  0  0  0  0  0  0  0
    3.0000    0.0000    0.0000 C   0  0  0  0  0  0  0  0  0  0  0  0
    4.5000    0.0000    0.0000 C   0  0  0  0  0  0  0  0  0  0  0  0
  1  2  2  0
  2  3  1  0
  3  4  2  0
  4  5  1  0
  5  6  1  0
  6  7  1  0
  7  8  1  0
  8  9  2  0
  9 10  1  0
 10 11  2  0
 11 12  1  0
 12 13  2  0
  6 14  1  0
 14 15  1  0
 15 16  2  0
 16 17  1  0
 17 18  2  0
 18 19  1  0
 19 20  2  0
  4 21  1  0
 21 22  2  0
 22  1  1  0
 13  8  1  0
 20 15  1  0
M  END
>  <linear_selectivity>  (508) 
34

>  <denticity>  (508) 
1

>  <ligand_class>  (508) 
phosphite

$$$$
P(OPh)3_120C_THF
     RDKit          2D

 22 24  0  0  0  0  0  0  0  0999 V2000
    5.2500   -1.2990    0.0000 C   0  0  0  0  0  0  0  0  0  0  0  0
    4.5000   -2.5981    0.0000 C   0  0  0  0  0  0  0  0  0  0  0  0
    3.0000   -2.5981    0.0000 C   0  0  0  0  0  0  0  0  0  0  0  0
    2.2500   -1.2990    0.0000 C   0  0  0  0  0  0  0  0  0  0  0  0
    0.7500   -1.2990    0.0000 O   0  0  0  0  0  0  0  0  0  0  0  0
    0.0000    0.0000    0.0000 P   0  0  0  0  0  0  0  0  0  0  0  0
   -1.5000    0.0000    0.0000 O   0  0  0  0  0  0  0  0  0  0  0  0
   -2.2500   -1.2990    0.0000 C   0  0  0  0  0  0  0  0  0  0  0  0
   -1.5000   -2.5981    0.0000 C   0  0  0  0  0  0  0  0  0  0  0  0
   -2.2500   -3.8971    0.0000 C   0  0  0  0  0  0  0  0  0  0  0  0
   -3.7500   -3.8971    0.0000 C   0  0  0  0  0  0  0  0  0  0  0  0
   -4.5000   -2.5981    0.0000 C   0  0  0  0  0  0  0  0  0  0  0  0
   -3.7500   -1.2990    0.0000 C   0  0  0  0  0  0  0  0  0  0  0  0
    0.7500    1.2990    0.0000 O   0  0  0  0  0  0  0  0  0  0  0  0
    0.0000    2.5981    0.0000 C   0  0  0  0  0  0  0  0  0  0  0  0
    0.7500    3.8971    0.0000 C   0  0  0  0  0  0  0  0  0  0  0  0
    0.0000    5.1962    0.0000 C   0  0  0  0  0  0  0  0  0  0  0  0
   -1.5000    5.1962    0.0000 C   0  0  0  0  0  0  0  0  0  0  0  0
   -2.2500    3.8971    0.0000 C   0  0  0  0  0  0  0  0  0  0  0  0
   -1.5000    2.5981    0.0000 C   0  0  0  0  0  0  0  0  0  0  0  0
    3.0000    0.0000    0.0000 C   0  0  0  0  0  0  0  0  0  0  0  0
    4.5000    0.0000    0.0000 C   0  0  0  0  0  0  0  0  0  0  0  0
  1  2  2  0
  2  3  1  0
  3  4  2  0
  4  5  1  0
  5  6  1  0
  6  7  1  0
  7  8  1  0
  8  9  2  0
  9 10  1  0
 10 11  2  0
 11 12  1  0
 12 13  2  0
  6 14  1  0
 14 15  1  0
 15 16  2  0
 16 17  1  0
 17 18  2  0
 18 19  1  0
 19 20  2  0
  4 21  1  0
 21 22  2  0
 22  1  1  0
 13  8  1  0
 20 15  1  0
M  END
>  <linear_selectivity>  (509) 
29

>  <denticity>  (509) 
1

>  <ligand_class>  (509) 
phosphite

$$$$
P(OPh)3_120C_dioxane
     RDKit          2D

 22 24  0  0  0  0  0  0  0  0999 V2000
    5.2500   -1.2990    0.0000 C   0  0  0  0  0  0  0  0  0  0  0  0
    4.5000   -2.5981    0.0000 C   0  0  0  0  0  0  0  0  0  0  0  0
    3.0000   -2.5981    0.0000 C   0  0  0  0  0  0  0  0  0  0  0  0
    2.2500   -1.2990    0.0000 C   0  0  0  0  0  0  0  0  0  0  0  0
    0.7500   -1.2990    0.0000 O   0  0  0  0  0  0  0  0  0  0  0  0
    0.0000    0.0000    0.0000 P   0  0  0  0  0  0  0  0  0  0  0  0
   -1.5000    0.0000    0.0000 O   0  0  0  0  0  0  0  0  0  0  0  0
   -2.2500   -1.2990    0.0000 C   0  0  0  0  0  0  0  0  0  0  0  0
   -1.5000   -2.5981    0.0000 C   0  0  0  0  0  0  0  0  0  0  0  0
   -2.2500   -3.8971    0.0000 C   0  0  0  0  0  0  0  0  0  0  0  0
   -3.7500   -3.8971    0.0000 C   0  0  0  0  0  0  0  0  0  0  0  0
   -4.5000   -2.5981    0.0000 C   0  0  0  0  0  0  0  0  0  0  0  0
   -3.7500   -1.2990    0.0000 C   0  0  0  0  0  0  0  0  0  0  0  0
    0.7500    1.2990    0.0000 O   0  0  0  0  0  0  0  0  0  0  0  0
    0.0000    2.5981    0.0000 C   0  0  0  0  0  0  0  0  0  0  0  0
    0.7500    3.8971    0.0000 C   0  0  0  0  0  0  0  0  0  0  0  0
    0.0000    5.1962    0.0000 C   0  0  0  0  0  0  0  0  0  0  0  0
   -1.5000    5.1962    0.0000 C   0  0  0  0  0  0  0  0  0  0  0  0
   -2.2500    3.8971    0.0000 C   0  0  0  0  0  0  0  0  0  0  0  0
   -1.5000    2.5981    0.0000 C   0  0  0  0  0  0  0  0  0  0  0  0
    3.0000    0.0000    0.0000 C   0  0  0  0  0  0  0  0  0  0  0  0
    4.5000    0.0000    0.0000 C   0  0  0  0  0  0  0  0  0  0  0  0
  1  2  2  0
  2  3  1  0
  3  4  2  0
  4  5  1  0
  5  6  1  0
  6  7  1  0
  7  8  1  0
  8  9  2  0
  9 10  1  0
 10 11  2  0
 11 12  1  0
 12 13  2  0
  6 14  1  0
 14 15  1  0
 15 16  2  0
 16 17  1  0
 17 18  2  0
 18 19  1  0
 19 20  2  0
  4 21  1  0
 21 22  2  0
 22  1  1  0
 13  8  1  0
 20 15  1  0
M  END
>  <linear_selectivity>  (510) 
39

>  <denticity>  (510) 
1

>  <ligand_class>  (510) 
phosphite

$$$$
P(OPh)3_120C_hexane
     RDKit          2D

 22 24  0  0  0  0  0  0  0  0999 V2000
    5.2500   -1.2990    0.0000 C   0  0  0  0  0  0  0  0  0  0  0  0
    4.5000   -2.5981    0.0000 C   0  0  0  0  0  0  0  0  0  0  0  0
    3.0000   -2.5981    0.0000 C   0  0  0  0  0  0  0  0  0  0  0  0
    2.2500   -1.2990    0.0000 C   0  0  0  0  0  0  0  0  0  0  0  0
    0.7500   -1.2990    0.0000 O   0  0  0  0  0  0  0  0  0  0  0  0
    0.0000    0.0000    0.0000 P   0  0  0  0  0  0  0  0  0  0  0  0
   -1.5000    0.0000    0.0000 O   0  0  0  0  0  0  0  0  0  0  0  0
   -2.2500   -1.2990    0.0000 C   0  0  0  0  0  0  0  0  0  0  0  0
   -1.5000   -2.5981    0.0000 C   0  0  0  0  0  0  0  0  0  0  0  0
   -2.2500   -3.8971    0.0000 C   0  0  0  0  0  0  0  0  0  0  0  0
   -3.7500   -3.8971    0.0000 C   0  0  0  0  0  0  0  0  0  0  0  0
   -4.5000   -2.5981    0.0000 C   0  0  0  0  0  0  0  0  0  0  0  0
   -3.7500   -1.2990    0.0000 C   0  0  0  0  0  0  0  0  0  0  0  0
    0.7500    1.2990    0.0000 O   0  0  0  0  0  0  0  0  0  0  0  0
    0.0000    2.5981    0.0000 C   0  0  0  0  0  0  0  0  0  0  0  0
    0.7500    3.8971    0.0000 C   0  0  0  0  0  0  0  0  0  0  0  0
    0.0000    5.1962    0.0000 C   0  0  0  0  0  0  0  0  0  0  0  0
   -1.5000    5.1962    0.0000 C   0  0  0  0  0  0  0  0  0  0  0  0
   -2.2500    3.8971    0.0000 C   0  0  0  0  0  0  0  0  0  0  0  0
   -1.5000    2.5981    0.0000 C   0  0  0  0  0  0  0  0  0  0  0  0
    3.0000    0.0000    0.0000 C   0  0  0  0  0  0  0  0  0  0  0  0
    4.5000    0.0000    0.0000 C   0  0  0  0  0  0  0  0  0  0  0  0
  1  2  2  0
  2  3  1  0
  3  4  2  0
  4  5  1  0
  5  6  1  0
  6  7  1  0
  7  8  1  0
  8  9  2  0
  9 10  1  0
 10 11  2  0
 11 12  1  0
 12 13  2  0
  6 14  1  0
 14 15  1  0
 15 16  2  0
 16 17  1  0
 17 18  2  0
 18 19  1  0
 19 20  2  0
  4 21  1  0
 21 22  2  0
 22  1  1  0
 13  8  1  0
 20 15  1  0
M  END
>  <linear_selectivity>  (511) 
36

>  <denticity>  (511) 
1

>  <ligand_class>  (511) 
phosphite

$$$$
P(OPh)3_120C_benzene
     RDKit          2D

 22 24  0  0  0  0  0  0  0  0999 V2000
    5.2500   -1.2990    0.0000 C   0  0  0  0  0  0  0  0  0  0  0  0
    4.5000   -2.5981    0.0000 C   0  0  0  0  0  0  0  0  0  0  0  0
    3.0000   -2.5981    0.0000 C   0  0  0  0  0  0  0  0  0  0  0  0
    2.2500   -1.2990    0.0000 C   0  0  0  0  0  0  0  0  0  0  0  0
    0.7500   -1.2990    0.0000 O   0  0  0  0  0  0  0  0  0  0  0  0
    0.0000    0.0000    0.0000 P   0  0  0  0  0  0  0  0  0  0  0  0
   -1.5000    0.0000    0.0000 O   0  0  0  0  0  0  0  0  0  0  0  0
   -2.2500   -1.2990    0.0000 C   0  0  0  0  0  0  0  0  0  0  0  0
   -1.5000   -2.5981    0.0000 C   0  0  0  0  0  0  0  0  0  0  0  0
   -2.2500   -3.8971    0.0000 C   0  0  0  0  0  0  0  0  0  0  0  0
   -3.7500   -3.8971    0.0000 C   0  0  0  0  0  0  0  0  0  0  0  0
   -4.5000   -2.5981    0.0000 C   0  0  0  0  0  0  0  0  0  0  0  0
   -3.7500   -1.2990    0.0000 C   0  0  0  0  0  0  0  0  0  0  0  0
    0.7500    1.2990    0.0000 O   0  0  0  0  0  0  0  0  0  0  0  0
    0.0000    2.5981    0.0000 C   0  0  0  0  0  0  0  0  0  0  0  0
    0.7500    3.8971    0.0000 C   0  0  0  0  0  0  0  0  0  0  0  0
    0.0000    5.1962    0.0000 C   0  0  0  0  0  0  0  0  0  0  0  0
   -1.5000    5.1962    0.0000 C   0  0  0  0  0  0  0  0  0  0  0  0
   -2.2500    3.8971    0.0000 C   0  0  0  0  0  0  0  0  0  0  0  0
   -1.5000    2.5981    0.0000 C   0  0  0  0  0  0  0  0  0  0  0  0
    3.0000    0.0000    0.0000 C   0  0  0  0  0  0  0  0  0  0  0  0
    4.5000    0.0000    0.0000 C   0  0  0  0  0  0  0  0  0  0  0  0
  1  2  2  0
  2  3  1  0
  3  4  2  0
  4  5  1  0
  5  6  1  0
  6  7  1  0
  7  8  1  0
  8  9  2  0
  9 10  1  0
 10 11  2  0
 11 12  1  0
 12 13  2  0
  6 14  1  0
 14 15  1  0
 15 16  2  0
 16 17  1  0
 17 18  2  0
 18 19  1  0
 19 20  2  0
  4 21  1  0
 21 22  2  0
 22  1  1  0
 13  8  1  0
 20 15  1  0
M  END
>  <linear_selectivity>  (512) 
35

>  <denticity>  (512) 
1

>  <ligand_class>  (512) 
phosphite

$$$$
P(OPh)3_120C_xylene
     RDKit          2D

 22 24  0  0  0  0  0  0  0  0999 V2000
    5.2500   -1.2990    0.0000 C   0  0  0  0  0  0  0  0  0  0  0  0
    4.5000   -2.5981    0.0000 C   0  0  0  0  0  0  0  0  0  0  0  0
    3.0000   -2.5981    0.0000 C   0  0  0  0  0  0  0  0  0  0  0  0
    2.2500   -1.2990    0.0000 C   0  0  0  0  0  0  0  0  0  0  0  0
    0.7500   -1.2990    0.0000 O   0  0  0  0  0  0  0  0  0  0  0  0
    0.0000    0.0000    0.0000 P   0  0  0  0  0  0  0  0  0  0  0  0
   -1.5000    0.0000    0.0000 O   0  0  0  0  0  0  0  0  0  0  0  0
   -2.2500   -1.2990    0.0000 C   0  0  0  0  0  0  0  0  0  0  0  0
   -1.5000   -2.5981    0.0000 C   0  0  0  0  0  0  0  0  0  0  0  0
   -2.2500   -3.8971    0.0000 C   0  0  0  0  0  0  0  0  0  0  0  0
   -3.7500   -3.8971    0.0000 C   0  0  0  0  0  0  0  0  0  0  0  0
   -4.5000   -2.5981    0.0000 C   0  0  0  0  0  0  0  0  0  0  0  0
   -3.7500   -1.2990    0.0000 C   0  0  0  0  0  0  0  0  0  0  0  0
    0.7500    1.2990    0.0000 O   0  0  0  0  0  0  0  0  0  0  0  0
    0.0000    2.5981    0.0000 C   0  0  0  0  0  0  0  0  0  0  0  0
    0.7500    3.8971    0.0000 C   0  0  0  0  0  0  0  0  0  0  0  0
    0.0000    5.1962    0.0000 C   0  0  0  0  0  0  0  0  0  0  0  0
   -1.5000    5.1962    0.0000 C   0  0  0  0  0  0  0  0  0  0  0  0
   -2.2500    3.8971    0.0000 C   0  0  0  0  0  0  0  0  0  0  0  0
   -1.5000    2.5981    0.0000 C   0  0  0  0  0  0  0  0  0  0  0  0
    3.0000    0.0000    0.0000 C   0  0  0  0  0  0  0  0  0  0  0  0
    4.5000    0.0000    0.0000 C   0  0  0  0  0  0  0  0  0  0  0  0
  1  2  2  0
  2  3  1  0
  3  4  2  0
  4  5  1  0
  5  6  1  0
  6  7  1  0
  7  8  1  0
  8  9  2  0
  9 10  1  0
 10 11  2  0
 11 12  1  0
 12 13  2  0
  6 14  1  0
 14 15  1  0
 15 16  2  0
 16 17  1  0
 17 18  2  0
 18 19  1  0
 19 20  2  0
  4 21  1  0
 21 22  2  0
 22  1  1  0
 13  8  1  0
 20 15  1  0
M  END
>  <linear_selectivity>  (513) 
39

>  <denticity>  (513) 
1

>  <ligand_class>  (513) 
phosphite

$$$$
P(OPh)3_130C_THF
     RDKit          2D

 22 24  0  0  0  0  0  0  0  0999 V2000
    5.2500   -1.2990    0.0000 C   0  0  0  0  0  0  0  0  0  0  0  0
    4.5000   -2.5981    0.0000 C   0  0  0  0  0  0  0  0  0  0  0  0
    3.0000   -2.5981    0.0000 C   0  0  0  0  0  0  0  0  0  0  0  0
    2.2500   -1.2990    0.0000 C   0  0  0  0  0  0  0  0  0  0  0  0
    0.7500   -1.2990    0.0000 O   0  0  0  0  0  0  0  0  0  0  0  0
    0.0000    0.0000    0.0000 P   0  0  0  0  0  0  0  0  0  0  0  0
   -1.5000    0.0000    0.0000 O   0  0  0  0  0  0  0  0  0  0  0  0
   -2.2500   -1.2990    0.0000 C   0  0  0  0  0  0  0  0  0  0  0  0
   -1.5000   -2.5981    0.0000 C   0  0  0  0  0  0  0  0  0  0  0  0
   -2.2500   -3.8971    0.0000 C   0  0  0  0  0  0  0  0  0  0  0  0
   -3.7500   -3.8971    0.0000 C   0  0  0  0  0  0  0  0  0  0  0  0
   -4.5000   -2.5981    0.0000 C   0  0  0  0  0  0  0  0  0  0  0  0
   -3.7500   -1.2990    0.0000 C   0  0  0  0  0  0  0  0  0  0  0  0
    0.7500    1.2990    0.0000 O   0  0  0  0  0  0  0  0  0  0  0  0
    0.0000    2.5981    0.0000 C   0  0  0  0  0  0  0  0  0  0  0  0
    0.7500    3.8971    0.0000 C   0  0  0  0  0  0  0  0  0  0  0  0
    0.0000    5.1962    0.0000 C   0  0  0  0  0  0  0  0  0  0  0  0
   -1.5000    5.1962    0.0000 C   0  0  0  0  0  0  0  0  0  0  0  0
   -2.2500    3.8971    0.0000 C   0  0  0  0  0  0  0  0  0  0  0  0
   -1.5000    2.5981    0.0000 C   0  0  0  0  0  0  0  0  0  0  0  0
    3.0000    0.0000    0.0000 C   0  0  0  0  0  0  0  0  0  0  0  0
    4.5000    0.0000    0.0000 C   0  0  0  0  0  0  0  0  0  0  0  0
  1  2  2  0
  2  3  1  0
  3  4  2  0
  4  5  1  0
  5  6  1  0
  6  7  1  0
  7  8  1  0
  8  9  2  0
  9 10  1  0
 10 11  2  0
 11 12  1  0
 12 13  2  0
  6 14  1  0
 14 15  1  0
 15 16  2  0
 16 17  1  0
 17 18  2  0
 18 19  1  0
 19 20  2  0
  4 21  1  0
 21 22  2  0
 22  1  1  0
 13  8  1  0
 20 15  1  0
M  END
>  <linear_selectivity>  (514) 
30

>  <denticity>  (514) 
1

>  <ligand_class>  (514) 
phosphite

$$$$
P(OPh)3_130C_dioxane
     RDKit          2D

 22 24  0  0  0  0  0  0  0  0999 V2000
    5.2500   -1.2990    0.0000 C   0  0  0  0  0  0  0  0  0  0  0  0
    4.5000   -2.5981    0.0000 C   0  0  0  0  0  0  0  0  0  0  0  0
    3.0000   -2.5981    0.0000 C   0  0  0  0  0  0  0  0  0  0  0  0
    2.2500   -1.2990    0.0000 C   0  0  0  0  0  0  0  0  0  0  0  0
    0.7500   -1.2990    0.0000 O   0  0  0  0  0  0  0  0  0  0  0  0
    0.0000    0.0000    0.0000 P   0  0  0  0  0  0  0  0  0  0  0  0
   -1.5000    0.0000    0.0000 O   0  0  0  0  0  0  0  0  0  0  0  0
   -2.2500   -1.2990    0.0000 C   0  0  0  0  0  0  0  0  0  0  0  0
   -1.5000   -2.5981    0.0000 C   0  0  0  0  0  0  0  0  0  0  0  0
   -2.2500   -3.8971    0.0000 C   0  0  0  0  0  0  0  0  0  0  0  0
   -3.7500   -3.8971    0.0000 C   0  0  0  0  0  0  0  0  0  0  0  0
   -4.5000   -2.5981    0.0000 C   0  0  0  0  0  0  0  0  0  0  0  0
   -3.7500   -1.2990    0.0000 C   0  0  0  0  0  0  0  0  0  0  0  0
    0.7500    1.2990    0.0000 O   0  0  0  0  0  0  0  0  0  0  0  0
    0.0000    2.5981    0.0000 C   0  0  0  0  0  0  0  0  0  0  0  0
    0.7500    3.8971    0.0000 C   0  0  0  0  0  0  0  0  0  0  0  0
    0.0000    5.1962    0.0000 C   0  0  0  0  0  0  0  0  0  0  0  0
   -1.5000    5.1962    0.0000 C   0  0  0  0  0  0  0  0  0  0  0  0
   -2.2500    3.8971    0.0000 C   0  0  0  0  0  0  0  0  0  0  0  0
   -1.5000    2.5981    0.0000 C   0  0  0  0  0  0  0  0  0  0  0  0
    3.0000    0.0000    0.0000 C   0  0  0  0  0  0  0  0  0  0  0  0
    4.5000    0.0000    0.0000 C   0  0  0  0  0  0  0  0  0  0  0  0
  1  2  2  0
  2  3  1  0
  3  4  2  0
  4  5  1  0
  5  6  1  0
  6  7  1  0
  7  8  1  0
  8  9  2  0
  9 10  1  0
 10 11  2  0
 11 12  1  0
 12 13  2  0
  6 14  1  0
 14 15  1  0
 15 16  2  0
 16 17  1  0
 17 18  2  0
 18 19  1  0
 19 20  2  0
  4 21  1  0
 21 22  2  0
 22  1  1  0
 13  8  1  0
 20 15  1  0
M  END
>  <linear_selectivity>  (515) 
34

>  <denticity>  (515) 
1

>  <ligand_class>  (515) 
phosphite

$$$$
P(OPh)3_130C_hexane
     RDKit          2D

 22 24  0  0  0  0  0  0  0  0999 V2000
    5.2500   -1.2990    0.0000 C   0  0  0  0  0  0  0  0  0  0  0  0
    4.5000   -2.5981    0.0000 C   0  0  0  0  0  0  0  0  0  0  0  0
    3.0000   -2.5981    0.0000 C   0  0  0  0  0  0  0  0  0  0  0  0
    2.2500   -1.2990    0.0000 C   0  0  0  0  0  0  0  0  0  0  0  0
    0.7500   -1.2990    0.0000 O   0  0  0  0  0  0  0  0  0  0  0  0
    0.0000    0.0000    0.0000 P   0  0  0  0  0  0  0  0  0  0  0  0
   -1.5000    0.0000    0.0000 O   0  0  0  0  0  0  0  0  0  0  0  0
   -2.2500   -1.2990    0.0000 C   0  0  0  0  0  0  0  0  0  0  0  0
   -1.5000   -2.5981    0.0000 C   0  0  0  0  0  0  0  0  0  0  0  0
   -2.2500   -3.8971    0.0000 C   0  0  0  0  0  0  0  0  0  0  0  0
   -3.7500   -3.8971    0.0000 C   0  0  0  0  0  0  0  0  0  0  0  0
   -4.5000   -2.5981    0.0000 C   0  0  0  0  0  0  0  0  0  0  0  0
   -3.7500   -1.2990    0.0000 C   0  0  0  0  0  0  0  0  0  0  0  0
    0.7500    1.2990    0.0000 O   0  0  0  0  0  0  0  0  0  0  0  0
    0.0000    2.5981    0.0000 C   0  0  0  0  0  0  0  0  0  0  0  0
    0.7500    3.8971    0.0000 C   0  0  0  0  0  0  0  0  0  0  0  0
    0.0000    5.1962    0.0000 C   0  0  0  0  0  0  0  0  0  0  0  0
   -1.5000    5.1962    0.0000 C   0  0  0  0  0  0  0  0  0  0  0  0
   -2.2500    3.8971    0.0000 C   0  0  0  0  0  0  0  0  0  0  0  0
   -1.5000    2.5981    0.0000 C   0  0  0  0  0  0  0  0  0  0  0  0
    3.0000    0.0000    0.0000 C   0  0  0  0  0  0  0  0  0  0  0  0
    4.5000    0.0000    0.0000 C   0  0  0  0  0  0  0  0  0  0  0  0
  1  2  2  0
  2  3  1  0
  3  4  2  0
  4  5  1  0
  5  6  1  0
  6  7  1  0
  7  8  1  0
  8  9  2  0
  9 10  1  0
 10 11  2  0
 11 12  1  0
 12 13  2  0
  6 14  1  0
 14 15  1  0
 15 16  2  0
 16 17  1  0
 17 18  2  0
 18 19  1  0
 19 20  2  0
  4 21  1  0
 21 22  2  0
 22  1  1  0
 13  8  1  0
 20 15  1  0
M  END
>  <linear_selectivity>  (516) 
34

>  <denticity>  (516) 
1

>  <ligand_class>  (516) 
phosphite

$$$$
P(OPh)3_130C_benzene
     RDKit          2D

 22 24  0  0  0  0  0  0  0  0999 V2000
    5.2500   -1.2990    0.0000 C   0  0  0  0  0  0  0  0  0  0  0  0
    4.5000   -2.5981    0.0000 C   0  0  0  0  0  0  0  0  0  0  0  0
    3.0000   -2.5981    0.0000 C   0  0  0  0  0  0  0  0  0  0  0  0
    2.2500   -1.2990    0.0000 C   0  0  0  0  0  0  0  0  0  0  0  0
    0.7500   -1.2990    0.0000 O   0  0  0  0  0  0  0  0  0  0  0  0
    0.0000    0.0000    0.0000 P   0  0  0  0  0  0  0  0  0  0  0  0
   -1.5000    0.0000    0.0000 O   0  0  0  0  0  0  0  0  0  0  0  0
   -2.2500   -1.2990    0.0000 C   0  0  0  0  0  0  0  0  0  0  0  0
   -1.5000   -2.5981    0.0000 C   0  0  0  0  0  0  0  0  0  0  0  0
   -2.2500   -3.8971    0.0000 C   0  0  0  0  0  0  0  0  0  0  0  0
   -3.7500   -3.8971    0.0000 C   0  0  0  0  0  0  0  0  0  0  0  0
   -4.5000   -2.5981    0.0000 C   0  0  0  0  0  0  0  0  0  0  0  0
   -3.7500   -1.2990    0.0000 C   0  0  0  0  0  0  0  0  0  0  0  0
    0.7500    1.2990    0.0000 O   0  0  0  0  0  0  0  0  0  0  0  0
    0.0000    2.5981    0.0000 C   0  0  0  0  0  0  0  0  0  0  0  0
    0.7500    3.8971    0.0000 C   0  0  0  0  0  0  0  0  0  0  0  0
    0.0000    5.1962    0.0000 C   0  0  0  0  0  0  0  0  0  0  0  0
   -1.5000    5.1962    0.0000 C   0  0  0  0  0  0  0  0  0  0  0  0
   -2.2500    3.8971    0.0000 C   0  0  0  0  0  0  0  0  0  0  0  0
   -1.5000    2.5981    0.0000 C   0  0  0  0  0  0  0  0  0  0  0  0
    3.0000    0.0000    0.0000 C   0  0  0  0  0  0  0  0  0  0  0  0
    4.5000    0.0000    0.0000 C   0  0  0  0  0  0  0  0  0  0  0  0
  1  2  2  0
  2  3  1  0
  3  4  2  0
  4  5  1  0
  5  6  1  0
  6  7  1  0
  7  8  1  0
  8  9  2  0
  9 10  1  0
 10 11  2  0
 11 12  1  0
 12 13  2  0
  6 14  1  0
 14 15  1  0
 15 16  2  0
 16 17  1  0
 17 18  2  0
 18 19  1  0
 19 20  2  0
  4 21  1  0
 21 22  2  0
 22  1  1  0
 13  8  1  0
 20 15  1  0
M  END
>  <linear_selectivity>  (517) 
32

>  <denticity>  (517) 
1

>  <ligand_class>  (517) 
phosphite

$$$$
P(OPh)3_130C_xylene
     RDKit          2D

 22 24  0  0  0  0  0  0  0  0999 V2000
    5.2500   -1.2990    0.0000 C   0  0  0  0  0  0  0  0  0  0  0  0
    4.5000   -2.5981    0.0000 C   0  0  0  0  0  0  0  0  0  0  0  0
    3.0000   -2.5981    0.0000 C   0  0  0  0  0  0  0  0  0  0  0  0
    2.2500   -1.2990    0.0000 C   0  0  0  0  0  0  0  0  0  0  0  0
    0.7500   -1.2990    0.0000 O   0  0  0  0  0  0  0  0  0  0  0  0
    0.0000    0.0000    0.0000 P   0  0  0  0  0  0  0  0  0  0  0  0
   -1.5000    0.0000    0.0000 O   0  0  0  0  0  0  0  0  0  0  0  0
   -2.2500   -1.2990    0.0000 C   0  0  0  0  0  0  0  0  0  0  0  0
   -1.5000   -2.5981    0.0000 C   0  0  0  0  0  0  0  0  0  0  0  0
   -2.2500   -3.8971    0.0000 C   0  0  0  0  0  0  0  0  0  0  0  0
   -3.7500   -3.8971    0.0000 C   0  0  0  0  0  0  0  0  0  0  0  0
   -4.5000   -2.5981    0.0000 C   0  0  0  0  0  0  0  0  0  0  0  0
   -3.7500   -1.2990    0.0000 C   0  0  0  0  0  0  0  0  0  0  0  0
    0.7500    1.2990    0.0000 O   0  0  0  0  0  0  0  0  0  0  0  0
    0.0000    2.5981    0.0000 C   0  0  0  0  0  0  0  0  0  0  0  0
    0.7500    3.8971    0.0000 C   0  0  0  0  0  0  0  0  0  0  0  0
    0.0000    5.1962    0.0000 C   0  0  0  0  0  0  0  0  0  0  0  0
   -1.5000    5.1962    0.0000 C   0  0  0  0  0  0  0  0  0  0  0  0
   -2.2500    3.8971    0.0000 C   0  0  0  0  0  0  0  0  0  0  0  0
   -1.5000    2.5981    0.0000 C   0  0  0  0  0  0  0  0  0  0  0  0
    3.0000    0.0000    0.0000 C   0  0  0  0  0  0  0  0  0  0  0  0
    4.5000    0.0000    0.0000 C   0  0  0  0  0  0  0  0  0  0  0  0
  1  2  2  0
  2  3  1  0
  3  4  2  0
  4  5  1  0
  5  6  1  0
  6  7  1  0
  7  8  1  0
  8  9  2  0
  9 10  1  0
 10 11  2  0
 11 12  1  0
 12 13  2  0
  6 14  1  0
 14 15  1  0
 15 16  2  0
 16 17  1  0
 17 18  2  0
 18 19  1  0
 19 20  2  0
  4 21  1  0
 21 22  2  0
 22  1  1  0
 13  8  1  0
 20 15  1  0
M  END
>  <linear_selectivity>  (518) 
35

>  <denticity>  (518) 
1

>  <ligand_class>  (518) 
phosphite

$$$$
P(O-o-Tol)3
     RDKit          2D

 25 27  0  0  0  0  0  0  0  0999 V2000
   -4.8286    2.3319    0.0000 C   0  0  0  0  0  0  0  0  0  0  0  0
   -3.4426    2.9055    0.0000 C   0  0  0  0  0  0  0  0  0  0  0  0
   -3.2463    4.3926    0.0000 C   0  0  0  0  0  0  0  0  0  0  0  0
   -1.8603    4.9661    0.0000 C   0  0  0  0  0  0  0  0  0  0  0  0
   -0.6706    4.0526    0.0000 C   0  0  0  0  0  0  0  0  0  0  0  0
   -0.8669    2.5655    0.0000 C   0  0  0  0  0  0  0  0  0  0  0  0
    0.3229    1.6520    0.0000 O   0  0  0  0  0  0  0  0  0  0  0  0
    0.1266    0.1649    0.0000 P   0  0  0  0  0  0  0  0  0  0  0  0
    1.3163   -0.7487    0.0000 O   0  0  0  0  0  0  0  0  0  0  0  0
    2.7023   -0.1751    0.0000 C   0  0  0  0  0  0  0  0  0  0  0  0
    2.8986    1.3120    0.0000 C   0  0  0  0  0  0  0  0  0  0  0  0
    4.2846    1.8855    0.0000 C   0  0  0  0  0  0  0  0  0  0  0  0
    5.4743    0.9720    0.0000 C   0  0  0  0  0  0  0  0  0  0  0  0
    5.2781   -0.5151    0.0000 C   0  0  0  0  0  0  0  0  0  0  0  0
    6.4678   -1.4286    0.0000 C   0  0  0  0  0  0  0  0  0  0  0  0
    3.8920   -1.0887    0.0000 C   0  0  0  0  0  0  0  0  0  0  0  0
   -1.2594   -0.4087    0.0000 O   0  0  0  0  0  0  0  0  0  0  0  0
   -1.4557   -1.8958    0.0000 C   0  0  0  0  0  0  0  0  0  0  0  0
   -0.2660   -2.8094    0.0000 C   0  0  0  0  0  0  0  0  0  0  0  0
   -0.4623   -4.2965    0.0000 C   0  0  0  0  0  0  0  0  0  0  0  0
   -1.8483   -4.8700    0.0000 C   0  0  0  0  0  0  0  0  0  0  0  0
   -3.0380   -3.9565    0.0000 C   0  0  0  0  0  0  0  0  0  0  0  0
   -4.4240   -4.5300    0.0000 C   0  0  0  0  0  0  0  0  0  0  0  0
   -2.8417   -2.4694    0.0000 C   0  0  0  0  0  0  0  0  0  0  0  0
   -2.2529    1.9919    0.0000 C   0  0  0  0  0  0  0  0  0  0  0  0
  1  2  1  0
  2  3  2  0
  3  4  1  0
  4  5  2  0
  5  6  1  0
  6  7  1  0
  7  8  1  0
  8  9  1  0
  9 10  1  0
 10 11  2  0
 11 12  1  0
 12 13  2  0
 13 14  1  0
 14 15  1  0
 14 16  2  0
  8 17  1  0
 17 18  1  0
 18 19  2  0
 19 20  1  0
 20 21  2  0
 21 22  1  0
 22 23  1  0
 22 24  2  0
  6 25  2  0
 25  2  1  0
 16 10  1  0
 24 18  1  0
M  END
>  <linear_selectivity>  (519) 
52

>  <denticity>  (519) 
1

>  <ligand_class>  (519) 
phosphite

$$$$
P(O-o-Tol)3_70C_toluene
     RDKit          2D

 25 27  0  0  0  0  0  0  0  0999 V2000
   -4.8286    2.3319    0.0000 C   0  0  0  0  0  0  0  0  0  0  0  0
   -3.4426    2.9055    0.0000 C   0  0  0  0  0  0  0  0  0  0  0  0
   -3.2463    4.3926    0.0000 C   0  0  0  0  0  0  0  0  0  0  0  0
   -1.8603    4.9661    0.0000 C   0  0  0  0  0  0  0  0  0  0  0  0
   -0.6706    4.0526    0.0000 C   0  0  0  0  0  0  0  0  0  0  0  0
   -0.8669    2.5655    0.0000 C   0  0  0  0  0  0  0  0  0  0  0  0
    0.3229    1.6520    0.0000 O   0  0  0  0  0  0  0  0  0  0  0  0
    0.1266    0.1649    0.0000 P   0  0  0  0  0  0  0  0  0  0  0  0
    1.3163   -0.7487    0.0000 O   0  0  0  0  0  0  0  0  0  0  0  0
    2.7023   -0.1751    0.0000 C   0  0  0  0  0  0  0  0  0  0  0  0
    2.8986    1.3120    0.0000 C   0  0  0  0  0  0  0  0  0  0  0  0
    4.2846    1.8855    0.0000 C   0  0  0  0  0  0  0  0  0  0  0  0
    5.4743    0.9720    0.0000 C   0  0  0  0  0  0  0  0  0  0  0  0
    5.2781   -0.5151    0.0000 C   0  0  0  0  0  0  0  0  0  0  0  0
    6.4678   -1.4286    0.0000 C   0  0  0  0  0  0  0  0  0  0  0  0
    3.8920   -1.0887    0.0000 C   0  0  0  0  0  0  0  0  0  0  0  0
   -1.2594   -0.4087    0.0000 O   0  0  0  0  0  0  0  0  0  0  0  0
   -1.4557   -1.8958    0.0000 C   0  0  0  0  0  0  0  0  0  0  0  0
   -0.2660   -2.8094    0.0000 C   0  0  0  0  0  0  0  0  0  0  0  0
   -0.4623   -4.2965    0.0000 C   0  0  0  0  0  0  0  0  0  0  0  0
   -1.8483   -4.8700    0.0000 C   0  0  0  0  0  0  0  0  0  0  0  0
   -3.0380   -3.9565    0.0000 C   0  0  0  0  0  0  0  0  0  0  0  0
   -4.4240   -4.5300    0.0000 C   0  0  0  0  0  0  0  0  0  0  0  0
   -2.8417   -2.4694    0.0000 C   0  0  0  0  0  0  0  0  0  0  0  0
   -2.2529    1.9919    0.0000 C   0  0  0  0  0  0  0  0  0  0  0  0
  1  2  1  0
  2  3  2  0
  3  4  1  0
  4  5  2  0
  5  6  1  0
  6  7  1  0
  7  8  1  0
  8  9  1  0
  9 10  1  0
 10 11  2  0
 11 12  1  0
 12 13  2  0
 13 14  1  0
 14 15  1  0
 14 16  2  0
  8 17  1  0
 17 18  1  0
 18 19  2  0
 19 20  1  0
 20 21  2  0
 21 22  1  0
 22 23  1  0
 22 24  2  0
  6 25  2  0
 25  2  1  0
 16 10  1  0
 24 18  1  0
M  END
>  <linear_selectivity>  (520) 
59

>  <denticity>  (520) 
1

>  <ligand_class>  (520) 
phosphite

$$$$
P(O-o-Tol)3_70C_THF
     RDKit          2D

 25 27  0  0  0  0  0  0  0  0999 V2000
   -4.8286    2.3319    0.0000 C   0  0  0  0  0  0  0  0  0  0  0  0
   -3.4426    2.9055    0.0000 C   0  0  0  0  0  0  0  0  0  0  0  0
   -3.2463    4.3926    0.0000 C   0  0  0  0  0  0  0  0  0  0  0  0
   -1.8603    4.9661    0.0000 C   0  0  0  0  0  0  0  0  0  0  0  0
   -0.6706    4.0526    0.0000 C   0  0  0  0  0  0  0  0  0  0  0  0
   -0.8669    2.5655    0.0000 C   0  0  0  0  0  0  0  0  0  0  0  0
    0.3229    1.6520    0.0000 O   0  0  0  0  0  0  0  0  0  0  0  0
    0.1266    0.1649    0.0000 P   0  0  0  0  0  0  0  0  0  0  0  0
    1.3163   -0.7487    0.0000 O   0  0  0  0  0  0  0  0  0  0  0  0
    2.7023   -0.1751    0.0000 C   0  0  0  0  0  0  0  0  0  0  0  0
    2.8986    1.3120    0.0000 C   0  0  0  0  0  0  0  0  0  0  0  0
    4.2846    1.8855    0.0000 C   0  0  0  0  0  0  0  0  0  0  0  0
    5.4743    0.9720    0.0000 C   0  0  0  0  0  0  0  0  0  0  0  0
    5.2781   -0.5151    0.0000 C   0  0  0  0  0  0  0  0  0  0  0  0
    6.4678   -1.4286    0.0000 C   0  0  0  0  0  0  0  0  0  0  0  0
    3.8920   -1.0887    0.0000 C   0  0  0  0  0  0  0  0  0  0  0  0
   -1.2594   -0.4087    0.0000 O   0  0  0  0  0  0  0  0  0  0  0  0
   -1.4557   -1.8958    0.0000 C   0  0  0  0  0  0  0  0  0  0  0  0
   -0.2660   -2.8094    0.0000 C   0  0  0  0  0  0  0  0  0  0  0  0
   -0.4623   -4.2965    0.0000 C   0  0  0  0  0  0  0  0  0  0  0  0
   -1.8483   -4.8700    0.0000 C   0  0  0  0  0  0  0  0  0  0  0  0
   -3.0380   -3.9565    0.0000 C   0  0  0  0  0  0  0  0  0  0  0  0
   -4.4240   -4.5300    0.0000 C   0  0  0  0  0  0  0  0  0  0  0  0
   -2.8417   -2.4694    0.0000 C   0  0  0  0  0  0  0  0  0  0  0  0
   -2.2529    1.9919    0.0000 C   0  0  0  0  0  0  0  0  0  0  0  0
  1  2  1  0
  2  3  2  0
  3  4  1  0
  4  5  2  0
  5  6  1  0
  6  7  1  0
  7  8  1  0
  8  9  1  0
  9 10  1  0
 10 11  2  0
 11 12  1  0
 12 13  2  0
 13 14  1  0
 14 15  1  0
 14 16  2  0
  8 17  1  0
 17 18  1  0
 18 19  2  0
 19 20  1  0
 20 21  2  0
 21 22  1  0
 22 23  1  0
 22 24  2  0
  6 25  2  0
 25  2  1  0
 16 10  1  0
 24 18  1  0
M  END
>  <linear_selectivity>  (521) 
53

>  <denticity>  (521) 
1

>  <ligand_class>  (521) 
phosphite

$$$$
P(O-o-Tol)3_70C_dioxane
     RDKit          2D

 25 27  0  0  0  0  0  0  0  0999 V2000
   -4.8286    2.3319    0.0000 C   0  0  0  0  0  0  0  0  0  0  0  0
   -3.4426    2.9055    0.0000 C   0  0  0  0  0  0  0  0  0  0  0  0
   -3.2463    4.3926    0.0000 C   0  0  0  0  0  0  0  0  0  0  0  0
   -1.8603    4.9661    0.0000 C   0  0  0  0  0  0  0  0  0  0  0  0
   -0.6706    4.0526    0.0000 C   0  0  0  0  0  0  0  0  0  0  0  0
   -0.8669    2.5655    0.0000 C   0  0  0  0  0  0  0  0  0  0  0  0
    0.3229    1.6520    0.0000 O   0  0  0  0  0  0  0  0  0  0  0  0
    0.1266    0.1649    0.0000 P   0  0  0  0  0  0  0  0  0  0  0  0
    1.3163   -0.7487    0.0000 O   0  0  0  0  0  0  0  0  0  0  0  0
    2.7023   -0.1751    0.0000 C   0  0  0  0  0  0  0  0  0  0  0  0
    2.8986    1.3120    0.0000 C   0  0  0  0  0  0  0  0  0  0  0  0
    4.2846    1.8855    0.0000 C   0  0  0  0  0  0  0  0  0  0  0  0
    5.4743    0.9720    0.0000 C   0  0  0  0  0  0  0  0  0  0  0  0
    5.2781   -0.5151    0.0000 C   0  0  0  0  0  0  0  0  0  0  0  0
    6.4678   -1.4286    0.0000 C   0  0  0  0  0  0  0  0  0  0  0  0
    3.8920   -1.0887    0.0000 C   0  0  0  0  0  0  0  0  0  0  0  0
   -1.2594   -0.4087    0.0000 O   0  0  0  0  0  0  0  0  0  0  0  0
   -1.4557   -1.8958    0.0000 C   0  0  0  0  0  0  0  0  0  0  0  0
   -0.2660   -2.8094    0.0000 C   0  0  0  0  0  0  0  0  0  0  0  0
   -0.4623   -4.2965    0.0000 C   0  0  0  0  0  0  0  0  0  0  0  0
   -1.8483   -4.8700    0.0000 C   0  0  0  0  0  0  0  0  0  0  0  0
   -3.0380   -3.9565    0.0000 C   0  0  0  0  0  0  0  0  0  0  0  0
   -4.4240   -4.5300    0.0000 C   0  0  0  0  0  0  0  0  0  0  0  0
   -2.8417   -2.4694    0.0000 C   0  0  0  0  0  0  0  0  0  0  0  0
   -2.2529    1.9919    0.0000 C   0  0  0  0  0  0  0  0  0  0  0  0
  1  2  1  0
  2  3  2  0
  3  4  1  0
  4  5  2  0
  5  6  1  0
  6  7  1  0
  7  8  1  0
  8  9  1  0
  9 10  1  0
 10 11  2  0
 11 12  1  0
 12 13  2  0
 13 14  1  0
 14 15  1  0
 14 16  2  0
  8 17  1  0
 17 18  1  0
 18 19  2  0
 19 20  1  0
 20 21  2  0
 21 22  1  0
 22 23  1  0
 22 24  2  0
  6 25  2  0
 25  2  1  0
 16 10  1  0
 24 18  1  0
M  END
>  <linear_selectivity>  (522) 
57

>  <denticity>  (522) 
1

>  <ligand_class>  (522) 
phosphite

$$$$
P(O-o-Tol)3_70C_xylene
     RDKit          2D

 25 27  0  0  0  0  0  0  0  0999 V2000
   -4.8286    2.3319    0.0000 C   0  0  0  0  0  0  0  0  0  0  0  0
   -3.4426    2.9055    0.0000 C   0  0  0  0  0  0  0  0  0  0  0  0
   -3.2463    4.3926    0.0000 C   0  0  0  0  0  0  0  0  0  0  0  0
   -1.8603    4.9661    0.0000 C   0  0  0  0  0  0  0  0  0  0  0  0
   -0.6706    4.0526    0.0000 C   0  0  0  0  0  0  0  0  0  0  0  0
   -0.8669    2.5655    0.0000 C   0  0  0  0  0  0  0  0  0  0  0  0
    0.3229    1.6520    0.0000 O   0  0  0  0  0  0  0  0  0  0  0  0
    0.1266    0.1649    0.0000 P   0  0  0  0  0  0  0  0  0  0  0  0
    1.3163   -0.7487    0.0000 O   0  0  0  0  0  0  0  0  0  0  0  0
    2.7023   -0.1751    0.0000 C   0  0  0  0  0  0  0  0  0  0  0  0
    2.8986    1.3120    0.0000 C   0  0  0  0  0  0  0  0  0  0  0  0
    4.2846    1.8855    0.0000 C   0  0  0  0  0  0  0  0  0  0  0  0
    5.4743    0.9720    0.0000 C   0  0  0  0  0  0  0  0  0  0  0  0
    5.2781   -0.5151    0.0000 C   0  0  0  0  0  0  0  0  0  0  0  0
    6.4678   -1.4286    0.0000 C   0  0  0  0  0  0  0  0  0  0  0  0
    3.8920   -1.0887    0.0000 C   0  0  0  0  0  0  0  0  0  0  0  0
   -1.2594   -0.4087    0.0000 O   0  0  0  0  0  0  0  0  0  0  0  0
   -1.4557   -1.8958    0.0000 C   0  0  0  0  0  0  0  0  0  0  0  0
   -0.2660   -2.8094    0.0000 C   0  0  0  0  0  0  0  0  0  0  0  0
   -0.4623   -4.2965    0.0000 C   0  0  0  0  0  0  0  0  0  0  0  0
   -1.8483   -4.8700    0.0000 C   0  0  0  0  0  0  0  0  0  0  0  0
   -3.0380   -3.9565    0.0000 C   0  0  0  0  0  0  0  0  0  0  0  0
   -4.4240   -4.5300    0.0000 C   0  0  0  0  0  0  0  0  0  0  0  0
   -2.8417   -2.4694    0.0000 C   0  0  0  0  0  0  0  0  0  0  0  0
   -2.2529    1.9919    0.0000 C   0  0  0  0  0  0  0  0  0  0  0  0
  1  2  1  0
  2  3  2  0
  3  4  1  0
  4  5  2  0
  5  6  1  0
  6  7  1  0
  7  8  1  0
  8  9  1  0
  9 10  1  0
 10 11  2  0
 11 12  1  0
 12 13  2  0
 13 14  1  0
 14 15  1  0
 14 16  2  0
  8 17  1  0
 17 18  1  0
 18 19  2  0
 19 20  1  0
 20 21  2  0
 21 22  1  0
 22 23  1  0
 22 24  2  0
  6 25  2  0
 25  2  1  0
 16 10  1  0
 24 18  1  0
M  END
>  <linear_selectivity>  (523) 
62

>  <denticity>  (523) 
1

>  <ligand_class>  (523) 
phosphite

$$$$
P(O-o-Tol)3_80C_toluene
     RDKit          2D

 25 27  0  0  0  0  0  0  0  0999 V2000
   -4.8286    2.3319    0.0000 C   0  0  0  0  0  0  0  0  0  0  0  0
   -3.4426    2.9055    0.0000 C   0  0  0  0  0  0  0  0  0  0  0  0
   -3.2463    4.3926    0.0000 C   0  0  0  0  0  0  0  0  0  0  0  0
   -1.8603    4.9661    0.0000 C   0  0  0  0  0  0  0  0  0  0  0  0
   -0.6706    4.0526    0.0000 C   0  0  0  0  0  0  0  0  0  0  0  0
   -0.8669    2.5655    0.0000 C   0  0  0  0  0  0  0  0  0  0  0  0
    0.3229    1.6520    0.0000 O   0  0  0  0  0  0  0  0  0  0  0  0
    0.1266    0.1649    0.0000 P   0  0  0  0  0  0  0  0  0  0  0  0
    1.3163   -0.7487    0.0000 O   0  0  0  0  0  0  0  0  0  0  0  0
    2.7023   -0.1751    0.0000 C   0  0  0  0  0  0  0  0  0  0  0  0
    2.8986    1.3120    0.0000 C   0  0  0  0  0  0  0  0  0  0  0  0
    4.2846    1.8855    0.0000 C   0  0  0  0  0  0  0  0  0  0  0  0
    5.4743    0.9720    0.0000 C   0  0  0  0  0  0  0  0  0  0  0  0
    5.2781   -0.5151    0.0000 C   0  0  0  0  0  0  0  0  0  0  0  0
    6.4678   -1.4286    0.0000 C   0  0  0  0  0  0  0  0  0  0  0  0
    3.8920   -1.0887    0.0000 C   0  0  0  0  0  0  0  0  0  0  0  0
   -1.2594   -0.4087    0.0000 O   0  0  0  0  0  0  0  0  0  0  0  0
   -1.4557   -1.8958    0.0000 C   0  0  0  0  0  0  0  0  0  0  0  0
   -0.2660   -2.8094    0.0000 C   0  0  0  0  0  0  0  0  0  0  0  0
   -0.4623   -4.2965    0.0000 C   0  0  0  0  0  0  0  0  0  0  0  0
   -1.8483   -4.8700    0.0000 C   0  0  0  0  0  0  0  0  0  0  0  0
   -3.0380   -3.9565    0.0000 C   0  0  0  0  0  0  0  0  0  0  0  0
   -4.4240   -4.5300    0.0000 C   0  0  0  0  0  0  0  0  0  0  0  0
   -2.8417   -2.4694    0.0000 C   0  0  0  0  0  0  0  0  0  0  0  0
   -2.2529    1.9919    0.0000 C   0  0  0  0  0  0  0  0  0  0  0  0
  1  2  1  0
  2  3  2  0
  3  4  1  0
  4  5  2  0
  5  6  1  0
  6  7  1  0
  7  8  1  0
  8  9  1  0
  9 10  1  0
 10 11  2  0
 11 12  1  0
 12 13  2  0
 13 14  1  0
 14 15  1  0
 14 16  2  0
  8 17  1  0
 17 18  1  0
 18 19  2  0
 19 20  1  0
 20 21  2  0
 21 22  1  0
 22 23  1  0
 22 24  2  0
  6 25  2  0
 25  2  1  0
 16 10  1  0
 24 18  1  0
M  END
>  <linear_selectivity>  (524) 
55

>  <denticity>  (524) 
1

>  <ligand_class>  (524) 
phosphite

$$$$
P(O-o-Tol)3_80C_dioxane
     RDKit          2D

 25 27  0  0  0  0  0  0  0  0999 V2000
   -4.8286    2.3319    0.0000 C   0  0  0  0  0  0  0  0  0  0  0  0
   -3.4426    2.9055    0.0000 C   0  0  0  0  0  0  0  0  0  0  0  0
   -3.2463    4.3926    0.0000 C   0  0  0  0  0  0  0  0  0  0  0  0
   -1.8603    4.9661    0.0000 C   0  0  0  0  0  0  0  0  0  0  0  0
   -0.6706    4.0526    0.0000 C   0  0  0  0  0  0  0  0  0  0  0  0
   -0.8669    2.5655    0.0000 C   0  0  0  0  0  0  0  0  0  0  0  0
    0.3229    1.6520    0.0000 O   0  0  0  0  0  0  0  0  0  0  0  0
    0.1266    0.1649    0.0000 P   0  0  0  0  0  0  0  0  0  0  0  0
    1.3163   -0.7487    0.0000 O   0  0  0  0  0  0  0  0  0  0  0  0
    2.7023   -0.1751    0.0000 C   0  0  0  0  0  0  0  0  0  0  0  0
    2.8986    1.3120    0.0000 C   0  0  0  0  0  0  0  0  0  0  0  0
    4.2846    1.8855    0.0000 C   0  0  0  0  0  0  0  0  0  0  0  0
    5.4743    0.9720    0.0000 C   0  0  0  0  0  0  0  0  0  0  0  0
    5.2781   -0.5151    0.0000 C   0  0  0  0  0  0  0  0  0  0  0  0
    6.4678   -1.4286    0.0000 C   0  0  0  0  0  0  0  0  0  0  0  0
    3.8920   -1.0887    0.0000 C   0  0  0  0  0  0  0  0  0  0  0  0
   -1.2594   -0.4087    0.0000 O   0  0  0  0  0  0  0  0  0  0  0  0
   -1.4557   -1.8958    0.0000 C   0  0  0  0  0  0  0  0  0  0  0  0
   -0.2660   -2.8094    0.0000 C   0  0  0  0  0  0  0  0  0  0  0  0
   -0.4623   -4.2965    0.0000 C   0  0  0  0  0  0  0  0  0  0  0  0
   -1.8483   -4.8700    0.0000 C   0  0  0  0  0  0  0  0  0  0  0  0
   -3.0380   -3.9565    0.0000 C   0  0  0  0  0  0  0  0  0  0  0  0
   -4.4240   -4.5300    0.0000 C   0  0  0  0  0  0  0  0  0  0  0  0
   -2.8417   -2.4694    0.0000 C   0  0  0  0  0  0  0  0  0  0  0  0
   -2.2529    1.9919    0.0000 C   0  0  0  0  0  0  0  0  0  0  0  0
  1  2  1  0
  2  3  2  0
  3  4  1  0
  4  5  2  0
  5  6  1  0
  6  7  1  0
  7  8  1  0
  8  9  1  0
  9 10  1  0
 10 11  2  0
 11 12  1  0
 12 13  2  0
 13 14  1  0
 14 15  1  0
 14 16  2  0
  8 17  1  0
 17 18  1  0
 18 19  2  0
 19 20  1  0
 20 21  2  0
 21 22  1  0
 22 23  1  0
 22 24  2  0
  6 25  2  0
 25  2  1  0
 16 10  1  0
 24 18  1  0
M  END
>  <linear_selectivity>  (525) 
54

>  <denticity>  (525) 
1

>  <ligand_class>  (525) 
phosphite

$$$$
P(O-o-Tol)3_80C_benzene
     RDKit          2D

 25 27  0  0  0  0  0  0  0  0999 V2000
   -4.8286    2.3319    0.0000 C   0  0  0  0  0  0  0  0  0  0  0  0
   -3.4426    2.9055    0.0000 C   0  0  0  0  0  0  0  0  0  0  0  0
   -3.2463    4.3926    0.0000 C   0  0  0  0  0  0  0  0  0  0  0  0
   -1.8603    4.9661    0.0000 C   0  0  0  0  0  0  0  0  0  0  0  0
   -0.6706    4.0526    0.0000 C   0  0  0  0  0  0  0  0  0  0  0  0
   -0.8669    2.5655    0.0000 C   0  0  0  0  0  0  0  0  0  0  0  0
    0.3229    1.6520    0.0000 O   0  0  0  0  0  0  0  0  0  0  0  0
    0.1266    0.1649    0.0000 P   0  0  0  0  0  0  0  0  0  0  0  0
    1.3163   -0.7487    0.0000 O   0  0  0  0  0  0  0  0  0  0  0  0
    2.7023   -0.1751    0.0000 C   0  0  0  0  0  0  0  0  0  0  0  0
    2.8986    1.3120    0.0000 C   0  0  0  0  0  0  0  0  0  0  0  0
    4.2846    1.8855    0.0000 C   0  0  0  0  0  0  0  0  0  0  0  0
    5.4743    0.9720    0.0000 C   0  0  0  0  0  0  0  0  0  0  0  0
    5.2781   -0.5151    0.0000 C   0  0  0  0  0  0  0  0  0  0  0  0
    6.4678   -1.4286    0.0000 C   0  0  0  0  0  0  0  0  0  0  0  0
    3.8920   -1.0887    0.0000 C   0  0  0  0  0  0  0  0  0  0  0  0
   -1.2594   -0.4087    0.0000 O   0  0  0  0  0  0  0  0  0  0  0  0
   -1.4557   -1.8958    0.0000 C   0  0  0  0  0  0  0  0  0  0  0  0
   -0.2660   -2.8094    0.0000 C   0  0  0  0  0  0  0  0  0  0  0  0
   -0.4623   -4.2965    0.0000 C   0  0  0  0  0  0  0  0  0  0  0  0
   -1.8483   -4.8700    0.0000 C   0  0  0  0  0  0  0  0  0  0  0  0
   -3.0380   -3.9565    0.0000 C   0  0  0  0  0  0  0  0  0  0  0  0
   -4.4240   -4.5300    0.0000 C   0  0  0  0  0  0  0  0  0  0  0  0
   -2.8417   -2.4694    0.0000 C   0  0  0  0  0  0  0  0  0  0  0  0
   -2.2529    1.9919    0.0000 C   0  0  0  0  0  0  0  0  0  0  0  0
  1  2  1  0
  2  3  2  0
  3  4  1  0
  4  5  2  0
  5  6  1  0
  6  7  1  0
  7  8  1  0
  8  9  1  0
  9 10  1  0
 10 11  2  0
 11 12  1  0
 12 13  2  0
 13 14  1  0
 14 15  1  0
 14 16  2  0
  8 17  1  0
 17 18  1  0
 18 19  2  0
 19 20  1  0
 20 21  2  0
 21 22  1  0
 22 23  1  0
 22 24  2  0
  6 25  2  0
 25  2  1  0
 16 10  1  0
 24 18  1  0
M  END
>  <linear_selectivity>  (526) 
56

>  <denticity>  (526) 
1

>  <ligand_class>  (526) 
phosphite

$$$$
P(O-o-Tol)3_90C_hexane
     RDKit          2D

 25 27  0  0  0  0  0  0  0  0999 V2000
   -4.8286    2.3319    0.0000 C   0  0  0  0  0  0  0  0  0  0  0  0
   -3.4426    2.9055    0.0000 C   0  0  0  0  0  0  0  0  0  0  0  0
   -3.2463    4.3926    0.0000 C   0  0  0  0  0  0  0  0  0  0  0  0
   -1.8603    4.9661    0.0000 C   0  0  0  0  0  0  0  0  0  0  0  0
   -0.6706    4.0526    0.0000 C   0  0  0  0  0  0  0  0  0  0  0  0
   -0.8669    2.5655    0.0000 C   0  0  0  0  0  0  0  0  0  0  0  0
    0.3229    1.6520    0.0000 O   0  0  0  0  0  0  0  0  0  0  0  0
    0.1266    0.1649    0.0000 P   0  0  0  0  0  0  0  0  0  0  0  0
    1.3163   -0.7487    0.0000 O   0  0  0  0  0  0  0  0  0  0  0  0
    2.7023   -0.1751    0.0000 C   0  0  0  0  0  0  0  0  0  0  0  0
    2.8986    1.3120    0.0000 C   0  0  0  0  0  0  0  0  0  0  0  0
    4.2846    1.8855    0.0000 C   0  0  0  0  0  0  0  0  0  0  0  0
    5.4743    0.9720    0.0000 C   0  0  0  0  0  0  0  0  0  0  0  0
    5.2781   -0.5151    0.0000 C   0  0  0  0  0  0  0  0  0  0  0  0
    6.4678   -1.4286    0.0000 C   0  0  0  0  0  0  0  0  0  0  0  0
    3.8920   -1.0887    0.0000 C   0  0  0  0  0  0  0  0  0  0  0  0
   -1.2594   -0.4087    0.0000 O   0  0  0  0  0  0  0  0  0  0  0  0
   -1.4557   -1.8958    0.0000 C   0  0  0  0  0  0  0  0  0  0  0  0
   -0.2660   -2.8094    0.0000 C   0  0  0  0  0  0  0  0  0  0  0  0
   -0.4623   -4.2965    0.0000 C   0  0  0  0  0  0  0  0  0  0  0  0
   -1.8483   -4.8700    0.0000 C   0  0  0  0  0  0  0  0  0  0  0  0
   -3.0380   -3.9565    0.0000 C   0  0  0  0  0  0  0  0  0  0  0  0
   -4.4240   -4.5300    0.0000 C   0  0  0  0  0  0  0  0  0  0  0  0
   -2.8417   -2.4694    0.0000 C   0  0  0  0  0  0  0  0  0  0  0  0
   -2.2529    1.9919    0.0000 C   0  0  0  0  0  0  0  0  0  0  0  0
  1  2  1  0
  2  3  2  0
  3  4  1  0
  4  5  2  0
  5  6  1  0
  6  7  1  0
  7  8  1  0
  8  9  1  0
  9 10  1  0
 10 11  2  0
 11 12  1  0
 12 13  2  0
 13 14  1  0
 14 15  1  0
 14 16  2  0
  8 17  1  0
 17 18  1  0
 18 19  2  0
 19 20  1  0
 20 21  2  0
 21 22  1  0
 22 23  1  0
 22 24  2  0
  6 25  2  0
 25  2  1  0
 16 10  1  0
 24 18  1  0
M  END
>  <linear_selectivity>  (527) 
54

>  <denticity>  (527) 
1

>  <ligand_class>  (527) 
phosphite

$$$$
P(O-o-Tol)3_90C_benzene
     RDKit          2D

 25 27  0  0  0  0  0  0  0  0999 V2000
   -4.8286    2.3319    0.0000 C   0  0  0  0  0  0  0  0  0  0  0  0
   -3.4426    2.9055    0.0000 C   0  0  0  0  0  0  0  0  0  0  0  0
   -3.2463    4.3926    0.0000 C   0  0  0  0  0  0  0  0  0  0  0  0
   -1.8603    4.9661    0.0000 C   0  0  0  0  0  0  0  0  0  0  0  0
   -0.6706    4.0526    0.0000 C   0  0  0  0  0  0  0  0  0  0  0  0
   -0.8669    2.5655    0.0000 C   0  0  0  0  0  0  0  0  0  0  0  0
    0.3229    1.6520    0.0000 O   0  0  0  0  0  0  0  0  0  0  0  0
    0.1266    0.1649    0.0000 P   0  0  0  0  0  0  0  0  0  0  0  0
    1.3163   -0.7487    0.0000 O   0  0  0  0  0  0  0  0  0  0  0  0
    2.7023   -0.1751    0.0000 C   0  0  0  0  0  0  0  0  0  0  0  0
    2.8986    1.3120    0.0000 C   0  0  0  0  0  0  0  0  0  0  0  0
    4.2846    1.8855    0.0000 C   0  0  0  0  0  0  0  0  0  0  0  0
    5.4743    0.9720    0.0000 C   0  0  0  0  0  0  0  0  0  0  0  0
    5.2781   -0.5151    0.0000 C   0  0  0  0  0  0  0  0  0  0  0  0
    6.4678   -1.4286    0.0000 C   0  0  0  0  0  0  0  0  0  0  0  0
    3.8920   -1.0887    0.0000 C   0  0  0  0  0  0  0  0  0  0  0  0
   -1.2594   -0.4087    0.0000 O   0  0  0  0  0  0  0  0  0  0  0  0
   -1.4557   -1.8958    0.0000 C   0  0  0  0  0  0  0  0  0  0  0  0
   -0.2660   -2.8094    0.0000 C   0  0  0  0  0  0  0  0  0  0  0  0
   -0.4623   -4.2965    0.0000 C   0  0  0  0  0  0  0  0  0  0  0  0
   -1.8483   -4.8700    0.0000 C   0  0  0  0  0  0  0  0  0  0  0  0
   -3.0380   -3.9565    0.0000 C   0  0  0  0  0  0  0  0  0  0  0  0
   -4.4240   -4.5300    0.0000 C   0  0  0  0  0  0  0  0  0  0  0  0
   -2.8417   -2.4694    0.0000 C   0  0  0  0  0  0  0  0  0  0  0  0
   -2.2529    1.9919    0.0000 C   0  0  0  0  0  0  0  0  0  0  0  0
  1  2  1  0
  2  3  2  0
  3  4  1  0
  4  5  2  0
  5  6  1  0
  6  7  1  0
  7  8  1  0
  8  9  1  0
  9 10  1  0
 10 11  2  0
 11 12  1  0
 12 13  2  0
 13 14  1  0
 14 15  1  0
 14 16  2  0
  8 17  1  0
 17 18  1  0
 18 19  2  0
 19 20  1  0
 20 21  2  0
 21 22  1  0
 22 23  1  0
 22 24  2  0
  6 25  2  0
 25  2  1  0
 16 10  1  0
 24 18  1  0
M  END
>  <linear_selectivity>  (528) 
54

>  <denticity>  (528) 
1

>  <ligand_class>  (528) 
phosphite

$$$$
P(O-o-Tol)3_90C_xylene
     RDKit          2D

 25 27  0  0  0  0  0  0  0  0999 V2000
   -4.8286    2.3319    0.0000 C   0  0  0  0  0  0  0  0  0  0  0  0
   -3.4426    2.9055    0.0000 C   0  0  0  0  0  0  0  0  0  0  0  0
   -3.2463    4.3926    0.0000 C   0  0  0  0  0  0  0  0  0  0  0  0
   -1.8603    4.9661    0.0000 C   0  0  0  0  0  0  0  0  0  0  0  0
   -0.6706    4.0526    0.0000 C   0  0  0  0  0  0  0  0  0  0  0  0
   -0.8669    2.5655    0.0000 C   0  0  0  0  0  0  0  0  0  0  0  0
    0.3229    1.6520    0.0000 O   0  0  0  0  0  0  0  0  0  0  0  0
    0.1266    0.1649    0.0000 P   0  0  0  0  0  0  0  0  0  0  0  0
    1.3163   -0.7487    0.0000 O   0  0  0  0  0  0  0  0  0  0  0  0
    2.7023   -0.1751    0.0000 C   0  0  0  0  0  0  0  0  0  0  0  0
    2.8986    1.3120    0.0000 C   0  0  0  0  0  0  0  0  0  0  0  0
    4.2846    1.8855    0.0000 C   0  0  0  0  0  0  0  0  0  0  0  0
    5.4743    0.9720    0.0000 C   0  0  0  0  0  0  0  0  0  0  0  0
    5.2781   -0.5151    0.0000 C   0  0  0  0  0  0  0  0  0  0  0  0
    6.4678   -1.4286    0.0000 C   0  0  0  0  0  0  0  0  0  0  0  0
    3.8920   -1.0887    0.0000 C   0  0  0  0  0  0  0  0  0  0  0  0
   -1.2594   -0.4087    0.0000 O   0  0  0  0  0  0  0  0  0  0  0  0
   -1.4557   -1.8958    0.0000 C   0  0  0  0  0  0  0  0  0  0  0  0
   -0.2660   -2.8094    0.0000 C   0  0  0  0  0  0  0  0  0  0  0  0
   -0.4623   -4.2965    0.0000 C   0  0  0  0  0  0  0  0  0  0  0  0
   -1.8483   -4.8700    0.0000 C   0  0  0  0  0  0  0  0  0  0  0  0
   -3.0380   -3.9565    0.0000 C   0  0  0  0  0  0  0  0  0  0  0  0
   -4.4240   -4.5300    0.0000 C   0  0  0  0  0  0  0  0  0  0  0  0
   -2.8417   -2.4694    0.0000 C   0  0  0  0  0  0  0  0  0  0  0  0
   -2.2529    1.9919    0.0000 C   0  0  0  0  0  0  0  0  0  0  0  0
  1  2  1  0
  2  3  2  0
  3  4  1  0
  4  5  2  0
  5  6  1  0
  6  7  1  0
  7  8  1  0
  8  9  1  0
  9 10  1  0
 10 11  2  0
 11 12  1  0
 12 13  2  0
 13 14  1  0
 14 15  1  0
 14 16  2  0
  8 17  1  0
 17 18  1  0
 18 19  2  0
 19 20  1  0
 20 21  2  0
 21 22  1  0
 22 23  1  0
 22 24  2  0
  6 25  2  0
 25  2  1  0
 16 10  1  0
 24 18  1  0
M  END
>  <linear_selectivity>  (529) 
55

>  <denticity>  (529) 
1

>  <ligand_class>  (529) 
phosphite

$$$$
P(O-o-Tol)3_100C_toluene
     RDKit          2D

 25 27  0  0  0  0  0  0  0  0999 V2000
   -4.8286    2.3319    0.0000 C   0  0  0  0  0  0  0  0  0  0  0  0
   -3.4426    2.9055    0.0000 C   0  0  0  0  0  0  0  0  0  0  0  0
   -3.2463    4.3926    0.0000 C   0  0  0  0  0  0  0  0  0  0  0  0
   -1.8603    4.9661    0.0000 C   0  0  0  0  0  0  0  0  0  0  0  0
   -0.6706    4.0526    0.0000 C   0  0  0  0  0  0  0  0  0  0  0  0
   -0.8669    2.5655    0.0000 C   0  0  0  0  0  0  0  0  0  0  0  0
    0.3229    1.6520    0.0000 O   0  0  0  0  0  0  0  0  0  0  0  0
    0.1266    0.1649    0.0000 P   0  0  0  0  0  0  0  0  0  0  0  0
    1.3163   -0.7487    0.0000 O   0  0  0  0  0  0  0  0  0  0  0  0
    2.7023   -0.1751    0.0000 C   0  0  0  0  0  0  0  0  0  0  0  0
    2.8986    1.3120    0.0000 C   0  0  0  0  0  0  0  0  0  0  0  0
    4.2846    1.8855    0.0000 C   0  0  0  0  0  0  0  0  0  0  0  0
    5.4743    0.9720    0.0000 C   0  0  0  0  0  0  0  0  0  0  0  0
    5.2781   -0.5151    0.0000 C   0  0  0  0  0  0  0  0  0  0  0  0
    6.4678   -1.4286    0.0000 C   0  0  0  0  0  0  0  0  0  0  0  0
    3.8920   -1.0887    0.0000 C   0  0  0  0  0  0  0  0  0  0  0  0
   -1.2594   -0.4087    0.0000 O   0  0  0  0  0  0  0  0  0  0  0  0
   -1.4557   -1.8958    0.0000 C   0  0  0  0  0  0  0  0  0  0  0  0
   -0.2660   -2.8094    0.0000 C   0  0  0  0  0  0  0  0  0  0  0  0
   -0.4623   -4.2965    0.0000 C   0  0  0  0  0  0  0  0  0  0  0  0
   -1.8483   -4.8700    0.0000 C   0  0  0  0  0  0  0  0  0  0  0  0
   -3.0380   -3.9565    0.0000 C   0  0  0  0  0  0  0  0  0  0  0  0
   -4.4240   -4.5300    0.0000 C   0  0  0  0  0  0  0  0  0  0  0  0
   -2.8417   -2.4694    0.0000 C   0  0  0  0  0  0  0  0  0  0  0  0
   -2.2529    1.9919    0.0000 C   0  0  0  0  0  0  0  0  0  0  0  0
  1  2  1  0
  2  3  2  0
  3  4  1  0
  4  5  2  0
  5  6  1  0
  6  7  1  0
  7  8  1  0
  8  9  1  0
  9 10  1  0
 10 11  2  0
 11 12  1  0
 12 13  2  0
 13 14  1  0
 14 15  1  0
 14 16  2  0
  8 17  1  0
 17 18  1  0
 18 19  2  0
 19 20  1  0
 20 21  2  0
 21 22  1  0
 22 23  1  0
 22 24  2  0
  6 25  2  0
 25  2  1  0
 16 10  1  0
 24 18  1  0
M  END
>  <linear_selectivity>  (530) 
51

>  <denticity>  (530) 
1

>  <ligand_class>  (530) 
phosphite

$$$$
P(O-o-Tol)3_100C_THF
     RDKit          2D

 25 27  0  0  0  0  0  0  0  0999 V2000
   -4.8286    2.3319    0.0000 C   0  0  0  0  0  0  0  0  0  0  0  0
   -3.4426    2.9055    0.0000 C   0  0  0  0  0  0  0  0  0  0  0  0
   -3.2463    4.3926    0.0000 C   0  0  0  0  0  0  0  0  0  0  0  0
   -1.8603    4.9661    0.0000 C   0  0  0  0  0  0  0  0  0  0  0  0
   -0.6706    4.0526    0.0000 C   0  0  0  0  0  0  0  0  0  0  0  0
   -0.8669    2.5655    0.0000 C   0  0  0  0  0  0  0  0  0  0  0  0
    0.3229    1.6520    0.0000 O   0  0  0  0  0  0  0  0  0  0  0  0
    0.1266    0.1649    0.0000 P   0  0  0  0  0  0  0  0  0  0  0  0
    1.3163   -0.7487    0.0000 O   0  0  0  0  0  0  0  0  0  0  0  0
    2.7023   -0.1751    0.0000 C   0  0  0  0  0  0  0  0  0  0  0  0
    2.8986    1.3120    0.0000 C   0  0  0  0  0  0  0  0  0  0  0  0
    4.2846    1.8855    0.0000 C   0  0  0  0  0  0  0  0  0  0  0  0
    5.4743    0.9720    0.0000 C   0  0  0  0  0  0  0  0  0  0  0  0
    5.2781   -0.5151    0.0000 C   0  0  0  0  0  0  0  0  0  0  0  0
    6.4678   -1.4286    0.0000 C   0  0  0  0  0  0  0  0  0  0  0  0
    3.8920   -1.0887    0.0000 C   0  0  0  0  0  0  0  0  0  0  0  0
   -1.2594   -0.4087    0.0000 O   0  0  0  0  0  0  0  0  0  0  0  0
   -1.4557   -1.8958    0.0000 C   0  0  0  0  0  0  0  0  0  0  0  0
   -0.2660   -2.8094    0.0000 C   0  0  0  0  0  0  0  0  0  0  0  0
   -0.4623   -4.2965    0.0000 C   0  0  0  0  0  0  0  0  0  0  0  0
   -1.8483   -4.8700    0.0000 C   0  0  0  0  0  0  0  0  0  0  0  0
   -3.0380   -3.9565    0.0000 C   0  0  0  0  0  0  0  0  0  0  0  0
   -4.4240   -4.5300    0.0000 C   0  0  0  0  0  0  0  0  0  0  0  0
   -2.8417   -2.4694    0.0000 C   0  0  0  0  0  0  0  0  0  0  0  0
   -2.2529    1.9919    0.0000 C   0  0  0  0  0  0  0  0  0  0  0  0
  1  2  1  0
  2  3  2  0
  3  4  1  0
  4  5  2  0
  5  6  1  0
  6  7  1  0
  7  8  1  0
  8  9  1  0
  9 10  1  0
 10 11  2  0
 11 12  1  0
 12 13  2  0
 13 14  1  0
 14 15  1  0
 14 16  2  0
  8 17  1  0
 17 18  1  0
 18 19  2  0
 19 20  1  0
 20 21  2  0
 21 22  1  0
 22 23  1  0
 22 24  2  0
  6 25  2  0
 25  2  1  0
 16 10  1  0
 24 18  1  0
M  END
>  <linear_selectivity>  (531) 
52

>  <denticity>  (531) 
1

>  <ligand_class>  (531) 
phosphite

$$$$
P(O-o-Tol)3_100C_dioxane
     RDKit          2D

 25 27  0  0  0  0  0  0  0  0999 V2000
   -4.8286    2.3319    0.0000 C   0  0  0  0  0  0  0  0  0  0  0  0
   -3.4426    2.9055    0.0000 C   0  0  0  0  0  0  0  0  0  0  0  0
   -3.2463    4.3926    0.0000 C   0  0  0  0  0  0  0  0  0  0  0  0
   -1.8603    4.9661    0.0000 C   0  0  0  0  0  0  0  0  0  0  0  0
   -0.6706    4.0526    0.0000 C   0  0  0  0  0  0  0  0  0  0  0  0
   -0.8669    2.5655    0.0000 C   0  0  0  0  0  0  0  0  0  0  0  0
    0.3229    1.6520    0.0000 O   0  0  0  0  0  0  0  0  0  0  0  0
    0.1266    0.1649    0.0000 P   0  0  0  0  0  0  0  0  0  0  0  0
    1.3163   -0.7487    0.0000 O   0  0  0  0  0  0  0  0  0  0  0  0
    2.7023   -0.1751    0.0000 C   0  0  0  0  0  0  0  0  0  0  0  0
    2.8986    1.3120    0.0000 C   0  0  0  0  0  0  0  0  0  0  0  0
    4.2846    1.8855    0.0000 C   0  0  0  0  0  0  0  0  0  0  0  0
    5.4743    0.9720    0.0000 C   0  0  0  0  0  0  0  0  0  0  0  0
    5.2781   -0.5151    0.0000 C   0  0  0  0  0  0  0  0  0  0  0  0
    6.4678   -1.4286    0.0000 C   0  0  0  0  0  0  0  0  0  0  0  0
    3.8920   -1.0887    0.0000 C   0  0  0  0  0  0  0  0  0  0  0  0
   -1.2594   -0.4087    0.0000 O   0  0  0  0  0  0  0  0  0  0  0  0
   -1.4557   -1.8958    0.0000 C   0  0  0  0  0  0  0  0  0  0  0  0
   -0.2660   -2.8094    0.0000 C   0  0  0  0  0  0  0  0  0  0  0  0
   -0.4623   -4.2965    0.0000 C   0  0  0  0  0  0  0  0  0  0  0  0
   -1.8483   -4.8700    0.0000 C   0  0  0  0  0  0  0  0  0  0  0  0
   -3.0380   -3.9565    0.0000 C   0  0  0  0  0  0  0  0  0  0  0  0
   -4.4240   -4.5300    0.0000 C   0  0  0  0  0  0  0  0  0  0  0  0
   -2.8417   -2.4694    0.0000 C   0  0  0  0  0  0  0  0  0  0  0  0
   -2.2529    1.9919    0.0000 C   0  0  0  0  0  0  0  0  0  0  0  0
  1  2  1  0
  2  3  2  0
  3  4  1  0
  4  5  2  0
  5  6  1  0
  6  7  1  0
  7  8  1  0
  8  9  1  0
  9 10  1  0
 10 11  2  0
 11 12  1  0
 12 13  2  0
 13 14  1  0
 14 15  1  0
 14 16  2  0
  8 17  1  0
 17 18  1  0
 18 19  2  0
 19 20  1  0
 20 21  2  0
 21 22  1  0
 22 23  1  0
 22 24  2  0
  6 25  2  0
 25  2  1  0
 16 10  1  0
 24 18  1  0
M  END
>  <linear_selectivity>  (532) 
49

>  <denticity>  (532) 
1

>  <ligand_class>  (532) 
phosphite

$$$$
P(O-o-Tol)3_100C_hexane
     RDKit          2D

 25 27  0  0  0  0  0  0  0  0999 V2000
   -4.8286    2.3319    0.0000 C   0  0  0  0  0  0  0  0  0  0  0  0
   -3.4426    2.9055    0.0000 C   0  0  0  0  0  0  0  0  0  0  0  0
   -3.2463    4.3926    0.0000 C   0  0  0  0  0  0  0  0  0  0  0  0
   -1.8603    4.9661    0.0000 C   0  0  0  0  0  0  0  0  0  0  0  0
   -0.6706    4.0526    0.0000 C   0  0  0  0  0  0  0  0  0  0  0  0
   -0.8669    2.5655    0.0000 C   0  0  0  0  0  0  0  0  0  0  0  0
    0.3229    1.6520    0.0000 O   0  0  0  0  0  0  0  0  0  0  0  0
    0.1266    0.1649    0.0000 P   0  0  0  0  0  0  0  0  0  0  0  0
    1.3163   -0.7487    0.0000 O   0  0  0  0  0  0  0  0  0  0  0  0
    2.7023   -0.1751    0.0000 C   0  0  0  0  0  0  0  0  0  0  0  0
    2.8986    1.3120    0.0000 C   0  0  0  0  0  0  0  0  0  0  0  0
    4.2846    1.8855    0.0000 C   0  0  0  0  0  0  0  0  0  0  0  0
    5.4743    0.9720    0.0000 C   0  0  0  0  0  0  0  0  0  0  0  0
    5.2781   -0.5151    0.0000 C   0  0  0  0  0  0  0  0  0  0  0  0
    6.4678   -1.4286    0.0000 C   0  0  0  0  0  0  0  0  0  0  0  0
    3.8920   -1.0887    0.0000 C   0  0  0  0  0  0  0  0  0  0  0  0
   -1.2594   -0.4087    0.0000 O   0  0  0  0  0  0  0  0  0  0  0  0
   -1.4557   -1.8958    0.0000 C   0  0  0  0  0  0  0  0  0  0  0  0
   -0.2660   -2.8094    0.0000 C   0  0  0  0  0  0  0  0  0  0  0  0
   -0.4623   -4.2965    0.0000 C   0  0  0  0  0  0  0  0  0  0  0  0
   -1.8483   -4.8700    0.0000 C   0  0  0  0  0  0  0  0  0  0  0  0
   -3.0380   -3.9565    0.0000 C   0  0  0  0  0  0  0  0  0  0  0  0
   -4.4240   -4.5300    0.0000 C   0  0  0  0  0  0  0  0  0  0  0  0
   -2.8417   -2.4694    0.0000 C   0  0  0  0  0  0  0  0  0  0  0  0
   -2.2529    1.9919    0.0000 C   0  0  0  0  0  0  0  0  0  0  0  0
  1  2  1  0
  2  3  2  0
  3  4  1  0
  4  5  2  0
  5  6  1  0
  6  7  1  0
  7  8  1  0
  8  9  1  0
  9 10  1  0
 10 11  2  0
 11 12  1  0
 12 13  2  0
 13 14  1  0
 14 15  1  0
 14 16  2  0
  8 17  1  0
 17 18  1  0
 18 19  2  0
 19 20  1  0
 20 21  2  0
 21 22  1  0
 22 23  1  0
 22 24  2  0
  6 25  2  0
 25  2  1  0
 16 10  1  0
 24 18  1  0
M  END
>  <linear_selectivity>  (533) 
56

>  <denticity>  (533) 
1

>  <ligand_class>  (533) 
phosphite

$$$$
P(O-o-Tol)3_100C_benzene
     RDKit          2D

 25 27  0  0  0  0  0  0  0  0999 V2000
   -4.8286    2.3319    0.0000 C   0  0  0  0  0  0  0  0  0  0  0  0
   -3.4426    2.9055    0.0000 C   0  0  0  0  0  0  0  0  0  0  0  0
   -3.2463    4.3926    0.0000 C   0  0  0  0  0  0  0  0  0  0  0  0
   -1.8603    4.9661    0.0000 C   0  0  0  0  0  0  0  0  0  0  0  0
   -0.6706    4.0526    0.0000 C   0  0  0  0  0  0  0  0  0  0  0  0
   -0.8669    2.5655    0.0000 C   0  0  0  0  0  0  0  0  0  0  0  0
    0.3229    1.6520    0.0000 O   0  0  0  0  0  0  0  0  0  0  0  0
    0.1266    0.1649    0.0000 P   0  0  0  0  0  0  0  0  0  0  0  0
    1.3163   -0.7487    0.0000 O   0  0  0  0  0  0  0  0  0  0  0  0
    2.7023   -0.1751    0.0000 C   0  0  0  0  0  0  0  0  0  0  0  0
    2.8986    1.3120    0.0000 C   0  0  0  0  0  0  0  0  0  0  0  0
    4.2846    1.8855    0.0000 C   0  0  0  0  0  0  0  0  0  0  0  0
    5.4743    0.9720    0.0000 C   0  0  0  0  0  0  0  0  0  0  0  0
    5.2781   -0.5151    0.0000 C   0  0  0  0  0  0  0  0  0  0  0  0
    6.4678   -1.4286    0.0000 C   0  0  0  0  0  0  0  0  0  0  0  0
    3.8920   -1.0887    0.0000 C   0  0  0  0  0  0  0  0  0  0  0  0
   -1.2594   -0.4087    0.0000 O   0  0  0  0  0  0  0  0  0  0  0  0
   -1.4557   -1.8958    0.0000 C   0  0  0  0  0  0  0  0  0  0  0  0
   -0.2660   -2.8094    0.0000 C   0  0  0  0  0  0  0  0  0  0  0  0
   -0.4623   -4.2965    0.0000 C   0  0  0  0  0  0  0  0  0  0  0  0
   -1.8483   -4.8700    0.0000 C   0  0  0  0  0  0  0  0  0  0  0  0
   -3.0380   -3.9565    0.0000 C   0  0  0  0  0  0  0  0  0  0  0  0
   -4.4240   -4.5300    0.0000 C   0  0  0  0  0  0  0  0  0  0  0  0
   -2.8417   -2.4694    0.0000 C   0  0  0  0  0  0  0  0  0  0  0  0
   -2.2529    1.9919    0.0000 C   0  0  0  0  0  0  0  0  0  0  0  0
  1  2  1  0
  2  3  2  0
  3  4  1  0
  4  5  2  0
  5  6  1  0
  6  7  1  0
  7  8  1  0
  8  9  1  0
  9 10  1  0
 10 11  2  0
 11 12  1  0
 12 13  2  0
 13 14  1  0
 14 15  1  0
 14 16  2  0
  8 17  1  0
 17 18  1  0
 18 19  2  0
 19 20  1  0
 20 21  2  0
 21 22  1  0
 22 23  1  0
 22 24  2  0
  6 25  2  0
 25  2  1  0
 16 10  1  0
 24 18  1  0
M  END
>  <linear_selectivity>  (534) 
53

>  <denticity>  (534) 
1

>  <ligand_class>  (534) 
phosphite

$$$$
P(O-o-Tol)3_100C_xylene
     RDKit          2D

 25 27  0  0  0  0  0  0  0  0999 V2000
   -4.8286    2.3319    0.0000 C   0  0  0  0  0  0  0  0  0  0  0  0
   -3.4426    2.9055    0.0000 C   0  0  0  0  0  0  0  0  0  0  0  0
   -3.2463    4.3926    0.0000 C   0  0  0  0  0  0  0  0  0  0  0  0
   -1.8603    4.9661    0.0000 C   0  0  0  0  0  0  0  0  0  0  0  0
   -0.6706    4.0526    0.0000 C   0  0  0  0  0  0  0  0  0  0  0  0
   -0.8669    2.5655    0.0000 C   0  0  0  0  0  0  0  0  0  0  0  0
    0.3229    1.6520    0.0000 O   0  0  0  0  0  0  0  0  0  0  0  0
    0.1266    0.1649    0.0000 P   0  0  0  0  0  0  0  0  0  0  0  0
    1.3163   -0.7487    0.0000 O   0  0  0  0  0  0  0  0  0  0  0  0
    2.7023   -0.1751    0.0000 C   0  0  0  0  0  0  0  0  0  0  0  0
    2.8986    1.3120    0.0000 C   0  0  0  0  0  0  0  0  0  0  0  0
    4.2846    1.8855    0.0000 C   0  0  0  0  0  0  0  0  0  0  0  0
    5.4743    0.9720    0.0000 C   0  0  0  0  0  0  0  0  0  0  0  0
    5.2781   -0.5151    0.0000 C   0  0  0  0  0  0  0  0  0  0  0  0
    6.4678   -1.4286    0.0000 C   0  0  0  0  0  0  0  0  0  0  0  0
    3.8920   -1.0887    0.0000 C   0  0  0  0  0  0  0  0  0  0  0  0
   -1.2594   -0.4087    0.0000 O   0  0  0  0  0  0  0  0  0  0  0  0
   -1.4557   -1.8958    0.0000 C   0  0  0  0  0  0  0  0  0  0  0  0
   -0.2660   -2.8094    0.0000 C   0  0  0  0  0  0  0  0  0  0  0  0
   -0.4623   -4.2965    0.0000 C   0  0  0  0  0  0  0  0  0  0  0  0
   -1.8483   -4.8700    0.0000 C   0  0  0  0  0  0  0  0  0  0  0  0
   -3.0380   -3.9565    0.0000 C   0  0  0  0  0  0  0  0  0  0  0  0
   -4.4240   -4.5300    0.0000 C   0  0  0  0  0  0  0  0  0  0  0  0
   -2.8417   -2.4694    0.0000 C   0  0  0  0  0  0  0  0  0  0  0  0
   -2.2529    1.9919    0.0000 C   0  0  0  0  0  0  0  0  0  0  0  0
  1  2  1  0
  2  3  2  0
  3  4  1  0
  4  5  2  0
  5  6  1  0
  6  7  1  0
  7  8  1  0
  8  9  1  0
  9 10  1  0
 10 11  2  0
 11 12  1  0
 12 13  2  0
 13 14  1  0
 14 15  1  0
 14 16  2  0
  8 17  1  0
 17 18  1  0
 18 19  2  0
 19 20  1  0
 20 21  2  0
 21 22  1  0
 22 23  1  0
 22 24  2  0
  6 25  2  0
 25  2  1  0
 16 10  1  0
 24 18  1  0
M  END
>  <linear_selectivity>  (535) 
52

>  <denticity>  (535) 
1

>  <ligand_class>  (535) 
phosphite

$$$$
P(O-o-Tol)3_110C_THF
     RDKit          2D

 25 27  0  0  0  0  0  0  0  0999 V2000
   -4.8286    2.3319    0.0000 C   0  0  0  0  0  0  0  0  0  0  0  0
   -3.4426    2.9055    0.0000 C   0  0  0  0  0  0  0  0  0  0  0  0
   -3.2463    4.3926    0.0000 C   0  0  0  0  0  0  0  0  0  0  0  0
   -1.8603    4.9661    0.0000 C   0  0  0  0  0  0  0  0  0  0  0  0
   -0.6706    4.0526    0.0000 C   0  0  0  0  0  0  0  0  0  0  0  0
   -0.8669    2.5655    0.0000 C   0  0  0  0  0  0  0  0  0  0  0  0
    0.3229    1.6520    0.0000 O   0  0  0  0  0  0  0  0  0  0  0  0
    0.1266    0.1649    0.0000 P   0  0  0  0  0  0  0  0  0  0  0  0
    1.3163   -0.7487    0.0000 O   0  0  0  0  0  0  0  0  0  0  0  0
    2.7023   -0.1751    0.0000 C   0  0  0  0  0  0  0  0  0  0  0  0
    2.8986    1.3120    0.0000 C   0  0  0  0  0  0  0  0  0  0  0  0
    4.2846    1.8855    0.0000 C   0  0  0  0  0  0  0  0  0  0  0  0
    5.4743    0.9720    0.0000 C   0  0  0  0  0  0  0  0  0  0  0  0
    5.2781   -0.5151    0.0000 C   0  0  0  0  0  0  0  0  0  0  0  0
    6.4678   -1.4286    0.0000 C   0  0  0  0  0  0  0  0  0  0  0  0
    3.8920   -1.0887    0.0000 C   0  0  0  0  0  0  0  0  0  0  0  0
   -1.2594   -0.4087    0.0000 O   0  0  0  0  0  0  0  0  0  0  0  0
   -1.4557   -1.8958    0.0000 C   0  0  0  0  0  0  0  0  0  0  0  0
   -0.2660   -2.8094    0.0000 C   0  0  0  0  0  0  0  0  0  0  0  0
   -0.4623   -4.2965    0.0000 C   0  0  0  0  0  0  0  0  0  0  0  0
   -1.8483   -4.8700    0.0000 C   0  0  0  0  0  0  0  0  0  0  0  0
   -3.0380   -3.9565    0.0000 C   0  0  0  0  0  0  0  0  0  0  0  0
   -4.4240   -4.5300    0.0000 C   0  0  0  0  0  0  0  0  0  0  0  0
   -2.8417   -2.4694    0.0000 C   0  0  0  0  0  0  0  0  0  0  0  0
   -2.2529    1.9919    0.0000 C   0  0  0  0  0  0  0  0  0  0  0  0
  1  2  1  0
  2  3  2  0
  3  4  1  0
  4  5  2  0
  5  6  1  0
  6  7  1  0
  7  8  1  0
  8  9  1  0
  9 10  1  0
 10 11  2  0
 11 12  1  0
 12 13  2  0
 13 14  1  0
 14 15  1  0
 14 16  2  0
  8 17  1  0
 17 18  1  0
 18 19  2  0
 19 20  1  0
 20 21  2  0
 21 22  1  0
 22 23  1  0
 22 24  2  0
  6 25  2  0
 25  2  1  0
 16 10  1  0
 24 18  1  0
M  END
>  <linear_selectivity>  (536) 
49

>  <denticity>  (536) 
1

>  <ligand_class>  (536) 
phosphite

$$$$
P(O-o-Tol)3_110C_dioxane
     RDKit          2D

 25 27  0  0  0  0  0  0  0  0999 V2000
   -4.8286    2.3319    0.0000 C   0  0  0  0  0  0  0  0  0  0  0  0
   -3.4426    2.9055    0.0000 C   0  0  0  0  0  0  0  0  0  0  0  0
   -3.2463    4.3926    0.0000 C   0  0  0  0  0  0  0  0  0  0  0  0
   -1.8603    4.9661    0.0000 C   0  0  0  0  0  0  0  0  0  0  0  0
   -0.6706    4.0526    0.0000 C   0  0  0  0  0  0  0  0  0  0  0  0
   -0.8669    2.5655    0.0000 C   0  0  0  0  0  0  0  0  0  0  0  0
    0.3229    1.6520    0.0000 O   0  0  0  0  0  0  0  0  0  0  0  0
    0.1266    0.1649    0.0000 P   0  0  0  0  0  0  0  0  0  0  0  0
    1.3163   -0.7487    0.0000 O   0  0  0  0  0  0  0  0  0  0  0  0
    2.7023   -0.1751    0.0000 C   0  0  0  0  0  0  0  0  0  0  0  0
    2.8986    1.3120    0.0000 C   0  0  0  0  0  0  0  0  0  0  0  0
    4.2846    1.8855    0.0000 C   0  0  0  0  0  0  0  0  0  0  0  0
    5.4743    0.9720    0.0000 C   0  0  0  0  0  0  0  0  0  0  0  0
    5.2781   -0.5151    0.0000 C   0  0  0  0  0  0  0  0  0  0  0  0
    6.4678   -1.4286    0.0000 C   0  0  0  0  0  0  0  0  0  0  0  0
    3.8920   -1.0887    0.0000 C   0  0  0  0  0  0  0  0  0  0  0  0
   -1.2594   -0.4087    0.0000 O   0  0  0  0  0  0  0  0  0  0  0  0
   -1.4557   -1.8958    0.0000 C   0  0  0  0  0  0  0  0  0  0  0  0
   -0.2660   -2.8094    0.0000 C   0  0  0  0  0  0  0  0  0  0  0  0
   -0.4623   -4.2965    0.0000 C   0  0  0  0  0  0  0  0  0  0  0  0
   -1.8483   -4.8700    0.0000 C   0  0  0  0  0  0  0  0  0  0  0  0
   -3.0380   -3.9565    0.0000 C   0  0  0  0  0  0  0  0  0  0  0  0
   -4.4240   -4.5300    0.0000 C   0  0  0  0  0  0  0  0  0  0  0  0
   -2.8417   -2.4694    0.0000 C   0  0  0  0  0  0  0  0  0  0  0  0
   -2.2529    1.9919    0.0000 C   0  0  0  0  0  0  0  0  0  0  0  0
  1  2  1  0
  2  3  2  0
  3  4  1  0
  4  5  2  0
  5  6  1  0
  6  7  1  0
  7  8  1  0
  8  9  1  0
  9 10  1  0
 10 11  2  0
 11 12  1  0
 12 13  2  0
 13 14  1  0
 14 15  1  0
 14 16  2  0
  8 17  1  0
 17 18  1  0
 18 19  2  0
 19 20  1  0
 20 21  2  0
 21 22  1  0
 22 23  1  0
 22 24  2  0
  6 25  2  0
 25  2  1  0
 16 10  1  0
 24 18  1  0
M  END
>  <linear_selectivity>  (537) 
48

>  <denticity>  (537) 
1

>  <ligand_class>  (537) 
phosphite

$$$$
P(O-o-Tol)3_110C_benzene
     RDKit          2D

 25 27  0  0  0  0  0  0  0  0999 V2000
   -4.8286    2.3319    0.0000 C   0  0  0  0  0  0  0  0  0  0  0  0
   -3.4426    2.9055    0.0000 C   0  0  0  0  0  0  0  0  0  0  0  0
   -3.2463    4.3926    0.0000 C   0  0  0  0  0  0  0  0  0  0  0  0
   -1.8603    4.9661    0.0000 C   0  0  0  0  0  0  0  0  0  0  0  0
   -0.6706    4.0526    0.0000 C   0  0  0  0  0  0  0  0  0  0  0  0
   -0.8669    2.5655    0.0000 C   0  0  0  0  0  0  0  0  0  0  0  0
    0.3229    1.6520    0.0000 O   0  0  0  0  0  0  0  0  0  0  0  0
    0.1266    0.1649    0.0000 P   0  0  0  0  0  0  0  0  0  0  0  0
    1.3163   -0.7487    0.0000 O   0  0  0  0  0  0  0  0  0  0  0  0
    2.7023   -0.1751    0.0000 C   0  0  0  0  0  0  0  0  0  0  0  0
    2.8986    1.3120    0.0000 C   0  0  0  0  0  0  0  0  0  0  0  0
    4.2846    1.8855    0.0000 C   0  0  0  0  0  0  0  0  0  0  0  0
    5.4743    0.9720    0.0000 C   0  0  0  0  0  0  0  0  0  0  0  0
    5.2781   -0.5151    0.0000 C   0  0  0  0  0  0  0  0  0  0  0  0
    6.4678   -1.4286    0.0000 C   0  0  0  0  0  0  0  0  0  0  0  0
    3.8920   -1.0887    0.0000 C   0  0  0  0  0  0  0  0  0  0  0  0
   -1.2594   -0.4087    0.0000 O   0  0  0  0  0  0  0  0  0  0  0  0
   -1.4557   -1.8958    0.0000 C   0  0  0  0  0  0  0  0  0  0  0  0
   -0.2660   -2.8094    0.0000 C   0  0  0  0  0  0  0  0  0  0  0  0
   -0.4623   -4.2965    0.0000 C   0  0  0  0  0  0  0  0  0  0  0  0
   -1.8483   -4.8700    0.0000 C   0  0  0  0  0  0  0  0  0  0  0  0
   -3.0380   -3.9565    0.0000 C   0  0  0  0  0  0  0  0  0  0  0  0
   -4.4240   -4.5300    0.0000 C   0  0  0  0  0  0  0  0  0  0  0  0
   -2.8417   -2.4694    0.0000 C   0  0  0  0  0  0  0  0  0  0  0  0
   -2.2529    1.9919    0.0000 C   0  0  0  0  0  0  0  0  0  0  0  0
  1  2  1  0
  2  3  2  0
  3  4  1  0
  4  5  2  0
  5  6  1  0
  6  7  1  0
  7  8  1  0
  8  9  1  0
  9 10  1  0
 10 11  2  0
 11 12  1  0
 12 13  2  0
 13 14  1  0
 14 15  1  0
 14 16  2  0
  8 17  1  0
 17 18  1  0
 18 19  2  0
 19 20  1  0
 20 21  2  0
 21 22  1  0
 22 23  1  0
 22 24  2  0
  6 25  2  0
 25  2  1  0
 16 10  1  0
 24 18  1  0
M  END
>  <linear_selectivity>  (538) 
50

>  <denticity>  (538) 
1

>  <ligand_class>  (538) 
phosphite

$$$$
P(O-o-Tol)3_110C_xylene
     RDKit          2D

 25 27  0  0  0  0  0  0  0  0999 V2000
   -4.8286    2.3319    0.0000 C   0  0  0  0  0  0  0  0  0  0  0  0
   -3.4426    2.9055    0.0000 C   0  0  0  0  0  0  0  0  0  0  0  0
   -3.2463    4.3926    0.0000 C   0  0  0  0  0  0  0  0  0  0  0  0
   -1.8603    4.9661    0.0000 C   0  0  0  0  0  0  0  0  0  0  0  0
   -0.6706    4.0526    0.0000 C   0  0  0  0  0  0  0  0  0  0  0  0
   -0.8669    2.5655    0.0000 C   0  0  0  0  0  0  0  0  0  0  0  0
    0.3229    1.6520    0.0000 O   0  0  0  0  0  0  0  0  0  0  0  0
    0.1266    0.1649    0.0000 P   0  0  0  0  0  0  0  0  0  0  0  0
    1.3163   -0.7487    0.0000 O   0  0  0  0  0  0  0  0  0  0  0  0
    2.7023   -0.1751    0.0000 C   0  0  0  0  0  0  0  0  0  0  0  0
    2.8986    1.3120    0.0000 C   0  0  0  0  0  0  0  0  0  0  0  0
    4.2846    1.8855    0.0000 C   0  0  0  0  0  0  0  0  0  0  0  0
    5.4743    0.9720    0.0000 C   0  0  0  0  0  0  0  0  0  0  0  0
    5.2781   -0.5151    0.0000 C   0  0  0  0  0  0  0  0  0  0  0  0
    6.4678   -1.4286    0.0000 C   0  0  0  0  0  0  0  0  0  0  0  0
    3.8920   -1.0887    0.0000 C   0  0  0  0  0  0  0  0  0  0  0  0
   -1.2594   -0.4087    0.0000 O   0  0  0  0  0  0  0  0  0  0  0  0
   -1.4557   -1.8958    0.0000 C   0  0  0  0  0  0  0  0  0  0  0  0
   -0.2660   -2.8094    0.0000 C   0  0  0  0  0  0  0  0  0  0  0  0
   -0.4623   -4.2965    0.0000 C   0  0  0  0  0  0  0  0  0  0  0  0
   -1.8483   -4.8700    0.0000 C   0  0  0  0  0  0  0  0  0  0  0  0
   -3.0380   -3.9565    0.0000 C   0  0  0  0  0  0  0  0  0  0  0  0
   -4.4240   -4.5300    0.0000 C   0  0  0  0  0  0  0  0  0  0  0  0
   -2.8417   -2.4694    0.0000 C   0  0  0  0  0  0  0  0  0  0  0  0
   -2.2529    1.9919    0.0000 C   0  0  0  0  0  0  0  0  0  0  0  0
  1  2  1  0
  2  3  2  0
  3  4  1  0
  4  5  2  0
  5  6  1  0
  6  7  1  0
  7  8  1  0
  8  9  1  0
  9 10  1  0
 10 11  2  0
 11 12  1  0
 12 13  2  0
 13 14  1  0
 14 15  1  0
 14 16  2  0
  8 17  1  0
 17 18  1  0
 18 19  2  0
 19 20  1  0
 20 21  2  0
 21 22  1  0
 22 23  1  0
 22 24  2  0
  6 25  2  0
 25  2  1  0
 16 10  1  0
 24 18  1  0
M  END
>  <linear_selectivity>  (539) 
53

>  <denticity>  (539) 
1

>  <ligand_class>  (539) 
phosphite

$$$$
P(O-o-Tol)3_120C_toluene
     RDKit          2D

 25 27  0  0  0  0  0  0  0  0999 V2000
   -4.8286    2.3319    0.0000 C   0  0  0  0  0  0  0  0  0  0  0  0
   -3.4426    2.9055    0.0000 C   0  0  0  0  0  0  0  0  0  0  0  0
   -3.2463    4.3926    0.0000 C   0  0  0  0  0  0  0  0  0  0  0  0
   -1.8603    4.9661    0.0000 C   0  0  0  0  0  0  0  0  0  0  0  0
   -0.6706    4.0526    0.0000 C   0  0  0  0  0  0  0  0  0  0  0  0
   -0.8669    2.5655    0.0000 C   0  0  0  0  0  0  0  0  0  0  0  0
    0.3229    1.6520    0.0000 O   0  0  0  0  0  0  0  0  0  0  0  0
    0.1266    0.1649    0.0000 P   0  0  0  0  0  0  0  0  0  0  0  0
    1.3163   -0.7487    0.0000 O   0  0  0  0  0  0  0  0  0  0  0  0
    2.7023   -0.1751    0.0000 C   0  0  0  0  0  0  0  0  0  0  0  0
    2.8986    1.3120    0.0000 C   0  0  0  0  0  0  0  0  0  0  0  0
    4.2846    1.8855    0.0000 C   0  0  0  0  0  0  0  0  0  0  0  0
    5.4743    0.9720    0.0000 C   0  0  0  0  0  0  0  0  0  0  0  0
    5.2781   -0.5151    0.0000 C   0  0  0  0  0  0  0  0  0  0  0  0
    6.4678   -1.4286    0.0000 C   0  0  0  0  0  0  0  0  0  0  0  0
    3.8920   -1.0887    0.0000 C   0  0  0  0  0  0  0  0  0  0  0  0
   -1.2594   -0.4087    0.0000 O   0  0  0  0  0  0  0  0  0  0  0  0
   -1.4557   -1.8958    0.0000 C   0  0  0  0  0  0  0  0  0  0  0  0
   -0.2660   -2.8094    0.0000 C   0  0  0  0  0  0  0  0  0  0  0  0
   -0.4623   -4.2965    0.0000 C   0  0  0  0  0  0  0  0  0  0  0  0
   -1.8483   -4.8700    0.0000 C   0  0  0  0  0  0  0  0  0  0  0  0
   -3.0380   -3.9565    0.0000 C   0  0  0  0  0  0  0  0  0  0  0  0
   -4.4240   -4.5300    0.0000 C   0  0  0  0  0  0  0  0  0  0  0  0
   -2.8417   -2.4694    0.0000 C   0  0  0  0  0  0  0  0  0  0  0  0
   -2.2529    1.9919    0.0000 C   0  0  0  0  0  0  0  0  0  0  0  0
  1  2  1  0
  2  3  2  0
  3  4  1  0
  4  5  2  0
  5  6  1  0
  6  7  1  0
  7  8  1  0
  8  9  1  0
  9 10  1  0
 10 11  2  0
 11 12  1  0
 12 13  2  0
 13 14  1  0
 14 15  1  0
 14 16  2  0
  8 17  1  0
 17 18  1  0
 18 19  2  0
 19 20  1  0
 20 21  2  0
 21 22  1  0
 22 23  1  0
 22 24  2  0
  6 25  2  0
 25  2  1  0
 16 10  1  0
 24 18  1  0
M  END
>  <linear_selectivity>  (540) 
46

>  <denticity>  (540) 
1

>  <ligand_class>  (540) 
phosphite

$$$$
P(O-o-Tol)3_120C_THF
     RDKit          2D

 25 27  0  0  0  0  0  0  0  0999 V2000
   -4.8286    2.3319    0.0000 C   0  0  0  0  0  0  0  0  0  0  0  0
   -3.4426    2.9055    0.0000 C   0  0  0  0  0  0  0  0  0  0  0  0
   -3.2463    4.3926    0.0000 C   0  0  0  0  0  0  0  0  0  0  0  0
   -1.8603    4.9661    0.0000 C   0  0  0  0  0  0  0  0  0  0  0  0
   -0.6706    4.0526    0.0000 C   0  0  0  0  0  0  0  0  0  0  0  0
   -0.8669    2.5655    0.0000 C   0  0  0  0  0  0  0  0  0  0  0  0
    0.3229    1.6520    0.0000 O   0  0  0  0  0  0  0  0  0  0  0  0
    0.1266    0.1649    0.0000 P   0  0  0  0  0  0  0  0  0  0  0  0
    1.3163   -0.7487    0.0000 O   0  0  0  0  0  0  0  0  0  0  0  0
    2.7023   -0.1751    0.0000 C   0  0  0  0  0  0  0  0  0  0  0  0
    2.8986    1.3120    0.0000 C   0  0  0  0  0  0  0  0  0  0  0  0
    4.2846    1.8855    0.0000 C   0  0  0  0  0  0  0  0  0  0  0  0
    5.4743    0.9720    0.0000 C   0  0  0  0  0  0  0  0  0  0  0  0
    5.2781   -0.5151    0.0000 C   0  0  0  0  0  0  0  0  0  0  0  0
    6.4678   -1.4286    0.0000 C   0  0  0  0  0  0  0  0  0  0  0  0
    3.8920   -1.0887    0.0000 C   0  0  0  0  0  0  0  0  0  0  0  0
   -1.2594   -0.4087    0.0000 O   0  0  0  0  0  0  0  0  0  0  0  0
   -1.4557   -1.8958    0.0000 C   0  0  0  0  0  0  0  0  0  0  0  0
   -0.2660   -2.8094    0.0000 C   0  0  0  0  0  0  0  0  0  0  0  0
   -0.4623   -4.2965    0.0000 C   0  0  0  0  0  0  0  0  0  0  0  0
   -1.8483   -4.8700    0.0000 C   0  0  0  0  0  0  0  0  0  0  0  0
   -3.0380   -3.9565    0.0000 C   0  0  0  0  0  0  0  0  0  0  0  0
   -4.4240   -4.5300    0.0000 C   0  0  0  0  0  0  0  0  0  0  0  0
   -2.8417   -2.4694    0.0000 C   0  0  0  0  0  0  0  0  0  0  0  0
   -2.2529    1.9919    0.0000 C   0  0  0  0  0  0  0  0  0  0  0  0
  1  2  1  0
  2  3  2  0
  3  4  1  0
  4  5  2  0
  5  6  1  0
  6  7  1  0
  7  8  1  0
  8  9  1  0
  9 10  1  0
 10 11  2  0
 11 12  1  0
 12 13  2  0
 13 14  1  0
 14 15  1  0
 14 16  2  0
  8 17  1  0
 17 18  1  0
 18 19  2  0
 19 20  1  0
 20 21  2  0
 21 22  1  0
 22 23  1  0
 22 24  2  0
  6 25  2  0
 25  2  1  0
 16 10  1  0
 24 18  1  0
M  END
>  <linear_selectivity>  (541) 
44

>  <denticity>  (541) 
1

>  <ligand_class>  (541) 
phosphite

$$$$
P(O-o-Tol)3_120C_hexane
     RDKit          2D

 25 27  0  0  0  0  0  0  0  0999 V2000
   -4.8286    2.3319    0.0000 C   0  0  0  0  0  0  0  0  0  0  0  0
   -3.4426    2.9055    0.0000 C   0  0  0  0  0  0  0  0  0  0  0  0
   -3.2463    4.3926    0.0000 C   0  0  0  0  0  0  0  0  0  0  0  0
   -1.8603    4.9661    0.0000 C   0  0  0  0  0  0  0  0  0  0  0  0
   -0.6706    4.0526    0.0000 C   0  0  0  0  0  0  0  0  0  0  0  0
   -0.8669    2.5655    0.0000 C   0  0  0  0  0  0  0  0  0  0  0  0
    0.3229    1.6520    0.0000 O   0  0  0  0  0  0  0  0  0  0  0  0
    0.1266    0.1649    0.0000 P   0  0  0  0  0  0  0  0  0  0  0  0
    1.3163   -0.7487    0.0000 O   0  0  0  0  0  0  0  0  0  0  0  0
    2.7023   -0.1751    0.0000 C   0  0  0  0  0  0  0  0  0  0  0  0
    2.8986    1.3120    0.0000 C   0  0  0  0  0  0  0  0  0  0  0  0
    4.2846    1.8855    0.0000 C   0  0  0  0  0  0  0  0  0  0  0  0
    5.4743    0.9720    0.0000 C   0  0  0  0  0  0  0  0  0  0  0  0
    5.2781   -0.5151    0.0000 C   0  0  0  0  0  0  0  0  0  0  0  0
    6.4678   -1.4286    0.0000 C   0  0  0  0  0  0  0  0  0  0  0  0
    3.8920   -1.0887    0.0000 C   0  0  0  0  0  0  0  0  0  0  0  0
   -1.2594   -0.4087    0.0000 O   0  0  0  0  0  0  0  0  0  0  0  0
   -1.4557   -1.8958    0.0000 C   0  0  0  0  0  0  0  0  0  0  0  0
   -0.2660   -2.8094    0.0000 C   0  0  0  0  0  0  0  0  0  0  0  0
   -0.4623   -4.2965    0.0000 C   0  0  0  0  0  0  0  0  0  0  0  0
   -1.8483   -4.8700    0.0000 C   0  0  0  0  0  0  0  0  0  0  0  0
   -3.0380   -3.9565    0.0000 C   0  0  0  0  0  0  0  0  0  0  0  0
   -4.4240   -4.5300    0.0000 C   0  0  0  0  0  0  0  0  0  0  0  0
   -2.8417   -2.4694    0.0000 C   0  0  0  0  0  0  0  0  0  0  0  0
   -2.2529    1.9919    0.0000 C   0  0  0  0  0  0  0  0  0  0  0  0
  1  2  1  0
  2  3  2  0
  3  4  1  0
  4  5  2  0
  5  6  1  0
  6  7  1  0
  7  8  1  0
  8  9  1  0
  9 10  1  0
 10 11  2  0
 11 12  1  0
 12 13  2  0
 13 14  1  0
 14 15  1  0
 14 16  2  0
  8 17  1  0
 17 18  1  0
 18 19  2  0
 19 20  1  0
 20 21  2  0
 21 22  1  0
 22 23  1  0
 22 24  2  0
  6 25  2  0
 25  2  1  0
 16 10  1  0
 24 18  1  0
M  END
>  <linear_selectivity>  (542) 
50

>  <denticity>  (542) 
1

>  <ligand_class>  (542) 
phosphite

$$$$
P(O-o-Tol)3_120C_benzene
     RDKit          2D

 25 27  0  0  0  0  0  0  0  0999 V2000
   -4.8286    2.3319    0.0000 C   0  0  0  0  0  0  0  0  0  0  0  0
   -3.4426    2.9055    0.0000 C   0  0  0  0  0  0  0  0  0  0  0  0
   -3.2463    4.3926    0.0000 C   0  0  0  0  0  0  0  0  0  0  0  0
   -1.8603    4.9661    0.0000 C   0  0  0  0  0  0  0  0  0  0  0  0
   -0.6706    4.0526    0.0000 C   0  0  0  0  0  0  0  0  0  0  0  0
   -0.8669    2.5655    0.0000 C   0  0  0  0  0  0  0  0  0  0  0  0
    0.3229    1.6520    0.0000 O   0  0  0  0  0  0  0  0  0  0  0  0
    0.1266    0.1649    0.0000 P   0  0  0  0  0  0  0  0  0  0  0  0
    1.3163   -0.7487    0.0000 O   0  0  0  0  0  0  0  0  0  0  0  0
    2.7023   -0.1751    0.0000 C   0  0  0  0  0  0  0  0  0  0  0  0
    2.8986    1.3120    0.0000 C   0  0  0  0  0  0  0  0  0  0  0  0
    4.2846    1.8855    0.0000 C   0  0  0  0  0  0  0  0  0  0  0  0
    5.4743    0.9720    0.0000 C   0  0  0  0  0  0  0  0  0  0  0  0
    5.2781   -0.5151    0.0000 C   0  0  0  0  0  0  0  0  0  0  0  0
    6.4678   -1.4286    0.0000 C   0  0  0  0  0  0  0  0  0  0  0  0
    3.8920   -1.0887    0.0000 C   0  0  0  0  0  0  0  0  0  0  0  0
   -1.2594   -0.4087    0.0000 O   0  0  0  0  0  0  0  0  0  0  0  0
   -1.4557   -1.8958    0.0000 C   0  0  0  0  0  0  0  0  0  0  0  0
   -0.2660   -2.8094    0.0000 C   0  0  0  0  0  0  0  0  0  0  0  0
   -0.4623   -4.2965    0.0000 C   0  0  0  0  0  0  0  0  0  0  0  0
   -1.8483   -4.8700    0.0000 C   0  0  0  0  0  0  0  0  0  0  0  0
   -3.0380   -3.9565    0.0000 C   0  0  0  0  0  0  0  0  0  0  0  0
   -4.4240   -4.5300    0.0000 C   0  0  0  0  0  0  0  0  0  0  0  0
   -2.8417   -2.4694    0.0000 C   0  0  0  0  0  0  0  0  0  0  0  0
   -2.2529    1.9919    0.0000 C   0  0  0  0  0  0  0  0  0  0  0  0
  1  2  1  0
  2  3  2  0
  3  4  1  0
  4  5  2  0
  5  6  1  0
  6  7  1  0
  7  8  1  0
  8  9  1  0
  9 10  1  0
 10 11  2  0
 11 12  1  0
 12 13  2  0
 13 14  1  0
 14 15  1  0
 14 16  2  0
  8 17  1  0
 17 18  1  0
 18 19  2  0
 19 20  1  0
 20 21  2  0
 21 22  1  0
 22 23  1  0
 22 24  2  0
  6 25  2  0
 25  2  1  0
 16 10  1  0
 24 18  1  0
M  END
>  <linear_selectivity>  (543) 
47

>  <denticity>  (543) 
1

>  <ligand_class>  (543) 
phosphite

$$$$
P(O-o-Tol)3_130C_THF
     RDKit          2D

 25 27  0  0  0  0  0  0  0  0999 V2000
   -4.8286    2.3319    0.0000 C   0  0  0  0  0  0  0  0  0  0  0  0
   -3.4426    2.9055    0.0000 C   0  0  0  0  0  0  0  0  0  0  0  0
   -3.2463    4.3926    0.0000 C   0  0  0  0  0  0  0  0  0  0  0  0
   -1.8603    4.9661    0.0000 C   0  0  0  0  0  0  0  0  0  0  0  0
   -0.6706    4.0526    0.0000 C   0  0  0  0  0  0  0  0  0  0  0  0
   -0.8669    2.5655    0.0000 C   0  0  0  0  0  0  0  0  0  0  0  0
    0.3229    1.6520    0.0000 O   0  0  0  0  0  0  0  0  0  0  0  0
    0.1266    0.1649    0.0000 P   0  0  0  0  0  0  0  0  0  0  0  0
    1.3163   -0.7487    0.0000 O   0  0  0  0  0  0  0  0  0  0  0  0
    2.7023   -0.1751    0.0000 C   0  0  0  0  0  0  0  0  0  0  0  0
    2.8986    1.3120    0.0000 C   0  0  0  0  0  0  0  0  0  0  0  0
    4.2846    1.8855    0.0000 C   0  0  0  0  0  0  0  0  0  0  0  0
    5.4743    0.9720    0.0000 C   0  0  0  0  0  0  0  0  0  0  0  0
    5.2781   -0.5151    0.0000 C   0  0  0  0  0  0  0  0  0  0  0  0
    6.4678   -1.4286    0.0000 C   0  0  0  0  0  0  0  0  0  0  0  0
    3.8920   -1.0887    0.0000 C   0  0  0  0  0  0  0  0  0  0  0  0
   -1.2594   -0.4087    0.0000 O   0  0  0  0  0  0  0  0  0  0  0  0
   -1.4557   -1.8958    0.0000 C   0  0  0  0  0  0  0  0  0  0  0  0
   -0.2660   -2.8094    0.0000 C   0  0  0  0  0  0  0  0  0  0  0  0
   -0.4623   -4.2965    0.0000 C   0  0  0  0  0  0  0  0  0  0  0  0
   -1.8483   -4.8700    0.0000 C   0  0  0  0  0  0  0  0  0  0  0  0
   -3.0380   -3.9565    0.0000 C   0  0  0  0  0  0  0  0  0  0  0  0
   -4.4240   -4.5300    0.0000 C   0  0  0  0  0  0  0  0  0  0  0  0
   -2.8417   -2.4694    0.0000 C   0  0  0  0  0  0  0  0  0  0  0  0
   -2.2529    1.9919    0.0000 C   0  0  0  0  0  0  0  0  0  0  0  0
  1  2  1  0
  2  3  2  0
  3  4  1  0
  4  5  2  0
  5  6  1  0
  6  7  1  0
  7  8  1  0
  8  9  1  0
  9 10  1  0
 10 11  2  0
 11 12  1  0
 12 13  2  0
 13 14  1  0
 14 15  1  0
 14 16  2  0
  8 17  1  0
 17 18  1  0
 18 19  2  0
 19 20  1  0
 20 21  2  0
 21 22  1  0
 22 23  1  0
 22 24  2  0
  6 25  2  0
 25  2  1  0
 16 10  1  0
 24 18  1  0
M  END
>  <linear_selectivity>  (544) 
42

>  <denticity>  (544) 
1

>  <ligand_class>  (544) 
phosphite

$$$$
P(O-o-Tol)3_130C_hexane
     RDKit          2D

 25 27  0  0  0  0  0  0  0  0999 V2000
   -4.8286    2.3319    0.0000 C   0  0  0  0  0  0  0  0  0  0  0  0
   -3.4426    2.9055    0.0000 C   0  0  0  0  0  0  0  0  0  0  0  0
   -3.2463    4.3926    0.0000 C   0  0  0  0  0  0  0  0  0  0  0  0
   -1.8603    4.9661    0.0000 C   0  0  0  0  0  0  0  0  0  0  0  0
   -0.6706    4.0526    0.0000 C   0  0  0  0  0  0  0  0  0  0  0  0
   -0.8669    2.5655    0.0000 C   0  0  0  0  0  0  0  0  0  0  0  0
    0.3229    1.6520    0.0000 O   0  0  0  0  0  0  0  0  0  0  0  0
    0.1266    0.1649    0.0000 P   0  0  0  0  0  0  0  0  0  0  0  0
    1.3163   -0.7487    0.0000 O   0  0  0  0  0  0  0  0  0  0  0  0
    2.7023   -0.1751    0.0000 C   0  0  0  0  0  0  0  0  0  0  0  0
    2.8986    1.3120    0.0000 C   0  0  0  0  0  0  0  0  0  0  0  0
    4.2846    1.8855    0.0000 C   0  0  0  0  0  0  0  0  0  0  0  0
    5.4743    0.9720    0.0000 C   0  0  0  0  0  0  0  0  0  0  0  0
    5.2781   -0.5151    0.0000 C   0  0  0  0  0  0  0  0  0  0  0  0
    6.4678   -1.4286    0.0000 C   0  0  0  0  0  0  0  0  0  0  0  0
    3.8920   -1.0887    0.0000 C   0  0  0  0  0  0  0  0  0  0  0  0
   -1.2594   -0.4087    0.0000 O   0  0  0  0  0  0  0  0  0  0  0  0
   -1.4557   -1.8958    0.0000 C   0  0  0  0  0  0  0  0  0  0  0  0
   -0.2660   -2.8094    0.0000 C   0  0  0  0  0  0  0  0  0  0  0  0
   -0.4623   -4.2965    0.0000 C   0  0  0  0  0  0  0  0  0  0  0  0
   -1.8483   -4.8700    0.0000 C   0  0  0  0  0  0  0  0  0  0  0  0
   -3.0380   -3.9565    0.0000 C   0  0  0  0  0  0  0  0  0  0  0  0
   -4.4240   -4.5300    0.0000 C   0  0  0  0  0  0  0  0  0  0  0  0
   -2.8417   -2.4694    0.0000 C   0  0  0  0  0  0  0  0  0  0  0  0
   -2.2529    1.9919    0.0000 C   0  0  0  0  0  0  0  0  0  0  0  0
  1  2  1  0
  2  3  2  0
  3  4  1  0
  4  5  2  0
  5  6  1  0
  6  7  1  0
  7  8  1  0
  8  9  1  0
  9 10  1  0
 10 11  2  0
 11 12  1  0
 12 13  2  0
 13 14  1  0
 14 15  1  0
 14 16  2  0
  8 17  1  0
 17 18  1  0
 18 19  2  0
 19 20  1  0
 20 21  2  0
 21 22  1  0
 22 23  1  0
 22 24  2  0
  6 25  2  0
 25  2  1  0
 16 10  1  0
 24 18  1  0
M  END
>  <linear_selectivity>  (545) 
48

>  <denticity>  (545) 
1

>  <ligand_class>  (545) 
phosphite

$$$$
P(O-o-Tol)3_130C_xylene
     RDKit          2D

 25 27  0  0  0  0  0  0  0  0999 V2000
   -4.8286    2.3319    0.0000 C   0  0  0  0  0  0  0  0  0  0  0  0
   -3.4426    2.9055    0.0000 C   0  0  0  0  0  0  0  0  0  0  0  0
   -3.2463    4.3926    0.0000 C   0  0  0  0  0  0  0  0  0  0  0  0
   -1.8603    4.9661    0.0000 C   0  0  0  0  0  0  0  0  0  0  0  0
   -0.6706    4.0526    0.0000 C   0  0  0  0  0  0  0  0  0  0  0  0
   -0.8669    2.5655    0.0000 C   0  0  0  0  0  0  0  0  0  0  0  0
    0.3229    1.6520    0.0000 O   0  0  0  0  0  0  0  0  0  0  0  0
    0.1266    0.1649    0.0000 P   0  0  0  0  0  0  0  0  0  0  0  0
    1.3163   -0.7487    0.0000 O   0  0  0  0  0  0  0  0  0  0  0  0
    2.7023   -0.1751    0.0000 C   0  0  0  0  0  0  0  0  0  0  0  0
    2.8986    1.3120    0.0000 C   0  0  0  0  0  0  0  0  0  0  0  0
    4.2846    1.8855    0.0000 C   0  0  0  0  0  0  0  0  0  0  0  0
    5.4743    0.9720    0.0000 C   0  0  0  0  0  0  0  0  0  0  0  0
    5.2781   -0.5151    0.0000 C   0  0  0  0  0  0  0  0  0  0  0  0
    6.4678   -1.4286    0.0000 C   0  0  0  0  0  0  0  0  0  0  0  0
    3.8920   -1.0887    0.0000 C   0  0  0  0  0  0  0  0  0  0  0  0
   -1.2594   -0.4087    0.0000 O   0  0  0  0  0  0  0  0  0  0  0  0
   -1.4557   -1.8958    0.0000 C   0  0  0  0  0  0  0  0  0  0  0  0
   -0.2660   -2.8094    0.0000 C   0  0  0  0  0  0  0  0  0  0  0  0
   -0.4623   -4.2965    0.0000 C   0  0  0  0  0  0  0  0  0  0  0  0
   -1.8483   -4.8700    0.0000 C   0  0  0  0  0  0  0  0  0  0  0  0
   -3.0380   -3.9565    0.0000 C   0  0  0  0  0  0  0  0  0  0  0  0
   -4.4240   -4.5300    0.0000 C   0  0  0  0  0  0  0  0  0  0  0  0
   -2.8417   -2.4694    0.0000 C   0  0  0  0  0  0  0  0  0  0  0  0
   -2.2529    1.9919    0.0000 C   0  0  0  0  0  0  0  0  0  0  0  0
  1  2  1  0
  2  3  2  0
  3  4  1  0
  4  5  2  0
  5  6  1  0
  6  7  1  0
  7  8  1  0
  8  9  1  0
  9 10  1  0
 10 11  2  0
 11 12  1  0
 12 13  2  0
 13 14  1  0
 14 15  1  0
 14 16  2  0
  8 17  1  0
 17 18  1  0
 18 19  2  0
 19 20  1  0
 20 21  2  0
 21 22  1  0
 22 23  1  0
 22 24  2  0
  6 25  2  0
 25  2  1  0
 16 10  1  0
 24 18  1  0
M  END
>  <linear_selectivity>  (546) 
46

>  <denticity>  (546) 
1

>  <ligand_class>  (546) 
phosphite

$$$$
P(O-p-Tol)3
     RDKit          2D

 25 27  0  0  0  0  0  0  0  0999 V2000
   -2.2500   -6.4952    0.0000 C   0  0  0  0  0  0  0  0  0  0  0  0
   -1.5000   -5.1962    0.0000 C   0  0  0  0  0  0  0  0  0  0  0  0
   -0.0000   -5.1962    0.0000 C   0  0  0  0  0  0  0  0  0  0  0  0
    0.7500   -3.8971    0.0000 C   0  0  0  0  0  0  0  0  0  0  0  0
   -0.0000   -2.5981    0.0000 C   0  0  0  0  0  0  0  0  0  0  0  0
    0.7500   -1.2990    0.0000 O   0  0  0  0  0  0  0  0  0  0  0  0
   -0.0000    0.0000    0.0000 P   0  0  0  0  0  0  0  0  0  0  0  0
   -1.5000    0.0000    0.0000 O   0  0  0  0  0  0  0  0  0  0  0  0
   -2.2500    1.2990    0.0000 C   0  0  0  0  0  0  0  0  0  0  0  0
   -1.5000    2.5981    0.0000 C   0  0  0  0  0  0  0  0  0  0  0  0
   -2.2500    3.8971    0.0000 C   0  0  0  0  0  0  0  0  0  0  0  0
   -3.7500    3.8971    0.0000 C   0  0  0  0  0  0  0  0  0  0  0  0
   -4.5000    5.1962    0.0000 C   0  0  0  0  0  0  0  0  0  0  0  0
   -4.5000    2.5981    0.0000 C   0  0  0  0  0  0  0  0  0  0  0  0
   -3.7500    1.2990    0.0000 C   0  0  0  0  0  0  0  0  0  0  0  0
    0.7500    1.2990    0.0000 O   0  0  0  0  0  0  0  0  0  0  0  0
    2.2500    1.2990    0.0000 C   0  0  0  0  0  0  0  0  0  0  0  0
    3.0000   -0.0000    0.0000 C   0  0  0  0  0  0  0  0  0  0  0  0
    4.5000   -0.0000    0.0000 C   0  0  0  0  0  0  0  0  0  0  0  0
    5.2500    1.2990    0.0000 C   0  0  0  0  0  0  0  0  0  0  0  0
    6.7500    1.2990    0.0000 C   0  0  0  0  0  0  0  0  0  0  0  0
    4.5000    2.5981    0.0000 C   0  0  0  0  0  0  0  0  0  0  0  0
    3.0000    2.5981    0.0000 C   0  0  0  0  0  0  0  0  0  0  0  0
   -1.5000   -2.5981    0.0000 C   0  0  0  0  0  0  0  0  0  0  0  0
   -2.2500   -3.8971    0.0000 C   0  0  0  0  0  0  0  0  0  0  0  0
  1  2  1  0
  2  3  2  0
  3  4  1  0
  4  5  2  0
  5  6  1  0
  6  7  1  0
  7  8  1  0
  8  9  1  0
  9 10  2  0
 10 11  1  0
 11 12  2  0
 12 13  1  0
 12 14  1  0
 14 15  2  0
  7 16  1  0
 16 17  1  0
 17 18  2  0
 18 19  1  0
 19 20  2  0
 20 21  1  0
 20 22  1  0
 22 23  2  0
  5 24  1  0
 24 25  2  0
 25  2  1  0
 15  9  1  0
 23 17  1  0
M  END
>  <linear_selectivity>  (547) 
42

>  <denticity>  (547) 
1

>  <ligand_class>  (547) 
phosphite

$$$$
P(O-p-Tol)3_70C_toluene
     RDKit          2D

 25 27  0  0  0  0  0  0  0  0999 V2000
   -2.2500   -6.4952    0.0000 C   0  0  0  0  0  0  0  0  0  0  0  0
   -1.5000   -5.1962    0.0000 C   0  0  0  0  0  0  0  0  0  0  0  0
   -0.0000   -5.1962    0.0000 C   0  0  0  0  0  0  0  0  0  0  0  0
    0.7500   -3.8971    0.0000 C   0  0  0  0  0  0  0  0  0  0  0  0
   -0.0000   -2.5981    0.0000 C   0  0  0  0  0  0  0  0  0  0  0  0
    0.7500   -1.2990    0.0000 O   0  0  0  0  0  0  0  0  0  0  0  0
   -0.0000    0.0000    0.0000 P   0  0  0  0  0  0  0  0  0  0  0  0
   -1.5000    0.0000    0.0000 O   0  0  0  0  0  0  0  0  0  0  0  0
   -2.2500    1.2990    0.0000 C   0  0  0  0  0  0  0  0  0  0  0  0
   -1.5000    2.5981    0.0000 C   0  0  0  0  0  0  0  0  0  0  0  0
   -2.2500    3.8971    0.0000 C   0  0  0  0  0  0  0  0  0  0  0  0
   -3.7500    3.8971    0.0000 C   0  0  0  0  0  0  0  0  0  0  0  0
   -4.5000    5.1962    0.0000 C   0  0  0  0  0  0  0  0  0  0  0  0
   -4.5000    2.5981    0.0000 C   0  0  0  0  0  0  0  0  0  0  0  0
   -3.7500    1.2990    0.0000 C   0  0  0  0  0  0  0  0  0  0  0  0
    0.7500    1.2990    0.0000 O   0  0  0  0  0  0  0  0  0  0  0  0
    2.2500    1.2990    0.0000 C   0  0  0  0  0  0  0  0  0  0  0  0
    3.0000   -0.0000    0.0000 C   0  0  0  0  0  0  0  0  0  0  0  0
    4.5000   -0.0000    0.0000 C   0  0  0  0  0  0  0  0  0  0  0  0
    5.2500    1.2990    0.0000 C   0  0  0  0  0  0  0  0  0  0  0  0
    6.7500    1.2990    0.0000 C   0  0  0  0  0  0  0  0  0  0  0  0
    4.5000    2.5981    0.0000 C   0  0  0  0  0  0  0  0  0  0  0  0
    3.0000    2.5981    0.0000 C   0  0  0  0  0  0  0  0  0  0  0  0
   -1.5000   -2.5981    0.0000 C   0  0  0  0  0  0  0  0  0  0  0  0
   -2.2500   -3.8971    0.0000 C   0  0  0  0  0  0  0  0  0  0  0  0
  1  2  1  0
  2  3  2  0
  3  4  1  0
  4  5  2  0
  5  6  1  0
  6  7  1  0
  7  8  1  0
  8  9  1  0
  9 10  2  0
 10 11  1  0
 11 12  2  0
 12 13  1  0
 12 14  1  0
 14 15  2  0
  7 16  1  0
 16 17  1  0
 17 18  2  0
 18 19  1  0
 19 20  2  0
 20 21  1  0
 20 22  1  0
 22 23  2  0
  5 24  1  0
 24 25  2  0
 25  2  1  0
 15  9  1  0
 23 17  1  0
M  END
>  <linear_selectivity>  (548) 
48

>  <denticity>  (548) 
1

>  <ligand_class>  (548) 
phosphite

$$$$
P(O-p-Tol)3_70C_dioxane
     RDKit          2D

 25 27  0  0  0  0  0  0  0  0999 V2000
   -2.2500   -6.4952    0.0000 C   0  0  0  0  0  0  0  0  0  0  0  0
   -1.5000   -5.1962    0.0000 C   0  0  0  0  0  0  0  0  0  0  0  0
   -0.0000   -5.1962    0.0000 C   0  0  0  0  0  0  0  0  0  0  0  0
    0.7500   -3.8971    0.0000 C   0  0  0  0  0  0  0  0  0  0  0  0
   -0.0000   -2.5981    0.0000 C   0  0  0  0  0  0  0  0  0  0  0  0
    0.7500   -1.2990    0.0000 O   0  0  0  0  0  0  0  0  0  0  0  0
   -0.0000    0.0000    0.0000 P   0  0  0  0  0  0  0  0  0  0  0  0
   -1.5000    0.0000    0.0000 O   0  0  0  0  0  0  0  0  0  0  0  0
   -2.2500    1.2990    0.0000 C   0  0  0  0  0  0  0  0  0  0  0  0
   -1.5000    2.5981    0.0000 C   0  0  0  0  0  0  0  0  0  0  0  0
   -2.2500    3.8971    0.0000 C   0  0  0  0  0  0  0  0  0  0  0  0
   -3.7500    3.8971    0.0000 C   0  0  0  0  0  0  0  0  0  0  0  0
   -4.5000    5.1962    0.0000 C   0  0  0  0  0  0  0  0  0  0  0  0
   -4.5000    2.5981    0.0000 C   0  0  0  0  0  0  0  0  0  0  0  0
   -3.7500    1.2990    0.0000 C   0  0  0  0  0  0  0  0  0  0  0  0
    0.7500    1.2990    0.0000 O   0  0  0  0  0  0  0  0  0  0  0  0
    2.2500    1.2990    0.0000 C   0  0  0  0  0  0  0  0  0  0  0  0
    3.0000   -0.0000    0.0000 C   0  0  0  0  0  0  0  0  0  0  0  0
    4.5000   -0.0000    0.0000 C   0  0  0  0  0  0  0  0  0  0  0  0
    5.2500    1.2990    0.0000 C   0  0  0  0  0  0  0  0  0  0  0  0
    6.7500    1.2990    0.0000 C   0  0  0  0  0  0  0  0  0  0  0  0
    4.5000    2.5981    0.0000 C   0  0  0  0  0  0  0  0  0  0  0  0
    3.0000    2.5981    0.0000 C   0  0  0  0  0  0  0  0  0  0  0  0
   -1.5000   -2.5981    0.0000 C   0  0  0  0  0  0  0  0  0  0  0  0
   -2.2500   -3.8971    0.0000 C   0  0  0  0  0  0  0  0  0  0  0  0
  1  2  1  0
  2  3  2  0
  3  4  1  0
  4  5  2  0
  5  6  1  0
  6  7  1  0
  7  8  1  0
  8  9  1  0
  9 10  2  0
 10 11  1  0
 11 12  2  0
 12 13  1  0
 12 14  1  0
 14 15  2  0
  7 16  1  0
 16 17  1  0
 17 18  2  0
 18 19  1  0
 19 20  2  0
 20 21  1  0
 20 22  1  0
 22 23  2  0
  5 24  1  0
 24 25  2  0
 25  2  1  0
 15  9  1  0
 23 17  1  0
M  END
>  <linear_selectivity>  (549) 
45

>  <denticity>  (549) 
1

>  <ligand_class>  (549) 
phosphite

$$$$
P(O-p-Tol)3_70C_hexane
     RDKit          2D

 25 27  0  0  0  0  0  0  0  0999 V2000
   -2.2500   -6.4952    0.0000 C   0  0  0  0  0  0  0  0  0  0  0  0
   -1.5000   -5.1962    0.0000 C   0  0  0  0  0  0  0  0  0  0  0  0
   -0.0000   -5.1962    0.0000 C   0  0  0  0  0  0  0  0  0  0  0  0
    0.7500   -3.8971    0.0000 C   0  0  0  0  0  0  0  0  0  0  0  0
   -0.0000   -2.5981    0.0000 C   0  0  0  0  0  0  0  0  0  0  0  0
    0.7500   -1.2990    0.0000 O   0  0  0  0  0  0  0  0  0  0  0  0
   -0.0000    0.0000    0.0000 P   0  0  0  0  0  0  0  0  0  0  0  0
   -1.5000    0.0000    0.0000 O   0  0  0  0  0  0  0  0  0  0  0  0
   -2.2500    1.2990    0.0000 C   0  0  0  0  0  0  0  0  0  0  0  0
   -1.5000    2.5981    0.0000 C   0  0  0  0  0  0  0  0  0  0  0  0
   -2.2500    3.8971    0.0000 C   0  0  0  0  0  0  0  0  0  0  0  0
   -3.7500    3.8971    0.0000 C   0  0  0  0  0  0  0  0  0  0  0  0
   -4.5000    5.1962    0.0000 C   0  0  0  0  0  0  0  0  0  0  0  0
   -4.5000    2.5981    0.0000 C   0  0  0  0  0  0  0  0  0  0  0  0
   -3.7500    1.2990    0.0000 C   0  0  0  0  0  0  0  0  0  0  0  0
    0.7500    1.2990    0.0000 O   0  0  0  0  0  0  0  0  0  0  0  0
    2.2500    1.2990    0.0000 C   0  0  0  0  0  0  0  0  0  0  0  0
    3.0000   -0.0000    0.0000 C   0  0  0  0  0  0  0  0  0  0  0  0
    4.5000   -0.0000    0.0000 C   0  0  0  0  0  0  0  0  0  0  0  0
    5.2500    1.2990    0.0000 C   0  0  0  0  0  0  0  0  0  0  0  0
    6.7500    1.2990    0.0000 C   0  0  0  0  0  0  0  0  0  0  0  0
    4.5000    2.5981    0.0000 C   0  0  0  0  0  0  0  0  0  0  0  0
    3.0000    2.5981    0.0000 C   0  0  0  0  0  0  0  0  0  0  0  0
   -1.5000   -2.5981    0.0000 C   0  0  0  0  0  0  0  0  0  0  0  0
   -2.2500   -3.8971    0.0000 C   0  0  0  0  0  0  0  0  0  0  0  0
  1  2  1  0
  2  3  2  0
  3  4  1  0
  4  5  2  0
  5  6  1  0
  6  7  1  0
  7  8  1  0
  8  9  1  0
  9 10  2  0
 10 11  1  0
 11 12  2  0
 12 13  1  0
 12 14  1  0
 14 15  2  0
  7 16  1  0
 16 17  1  0
 17 18  2  0
 18 19  1  0
 19 20  2  0
 20 21  1  0
 20 22  1  0
 22 23  2  0
  5 24  1  0
 24 25  2  0
 25  2  1  0
 15  9  1  0
 23 17  1  0
M  END
>  <linear_selectivity>  (550) 
50

>  <denticity>  (550) 
1

>  <ligand_class>  (550) 
phosphite

$$$$
P(O-p-Tol)3_70C_xylene
     RDKit          2D

 25 27  0  0  0  0  0  0  0  0999 V2000
   -2.2500   -6.4952    0.0000 C   0  0  0  0  0  0  0  0  0  0  0  0
   -1.5000   -5.1962    0.0000 C   0  0  0  0  0  0  0  0  0  0  0  0
   -0.0000   -5.1962    0.0000 C   0  0  0  0  0  0  0  0  0  0  0  0
    0.7500   -3.8971    0.0000 C   0  0  0  0  0  0  0  0  0  0  0  0
   -0.0000   -2.5981    0.0000 C   0  0  0  0  0  0  0  0  0  0  0  0
    0.7500   -1.2990    0.0000 O   0  0  0  0  0  0  0  0  0  0  0  0
   -0.0000    0.0000    0.0000 P   0  0  0  0  0  0  0  0  0  0  0  0
   -1.5000    0.0000    0.0000 O   0  0  0  0  0  0  0  0  0  0  0  0
   -2.2500    1.2990    0.0000 C   0  0  0  0  0  0  0  0  0  0  0  0
   -1.5000    2.5981    0.0000 C   0  0  0  0  0  0  0  0  0  0  0  0
   -2.2500    3.8971    0.0000 C   0  0  0  0  0  0  0  0  0  0  0  0
   -3.7500    3.8971    0.0000 C   0  0  0  0  0  0  0  0  0  0  0  0
   -4.5000    5.1962    0.0000 C   0  0  0  0  0  0  0  0  0  0  0  0
   -4.5000    2.5981    0.0000 C   0  0  0  0  0  0  0  0  0  0  0  0
   -3.7500    1.2990    0.0000 C   0  0  0  0  0  0  0  0  0  0  0  0
    0.7500    1.2990    0.0000 O   0  0  0  0  0  0  0  0  0  0  0  0
    2.2500    1.2990    0.0000 C   0  0  0  0  0  0  0  0  0  0  0  0
    3.0000   -0.0000    0.0000 C   0  0  0  0  0  0  0  0  0  0  0  0
    4.5000   -0.0000    0.0000 C   0  0  0  0  0  0  0  0  0  0  0  0
    5.2500    1.2990    0.0000 C   0  0  0  0  0  0  0  0  0  0  0  0
    6.7500    1.2990    0.0000 C   0  0  0  0  0  0  0  0  0  0  0  0
    4.5000    2.5981    0.0000 C   0  0  0  0  0  0  0  0  0  0  0  0
    3.0000    2.5981    0.0000 C   0  0  0  0  0  0  0  0  0  0  0  0
   -1.5000   -2.5981    0.0000 C   0  0  0  0  0  0  0  0  0  0  0  0
   -2.2500   -3.8971    0.0000 C   0  0  0  0  0  0  0  0  0  0  0  0
  1  2  1  0
  2  3  2  0
  3  4  1  0
  4  5  2  0
  5  6  1  0
  6  7  1  0
  7  8  1  0
  8  9  1  0
  9 10  2  0
 10 11  1  0
 11 12  2  0
 12 13  1  0
 12 14  1  0
 14 15  2  0
  7 16  1  0
 16 17  1  0
 17 18  2  0
 18 19  1  0
 19 20  2  0
 20 21  1  0
 20 22  1  0
 22 23  2  0
  5 24  1  0
 24 25  2  0
 25  2  1  0
 15  9  1  0
 23 17  1  0
M  END
>  <linear_selectivity>  (551) 
45

>  <denticity>  (551) 
1

>  <ligand_class>  (551) 
phosphite

$$$$
P(O-p-Tol)3_80C_toluene
     RDKit          2D

 25 27  0  0  0  0  0  0  0  0999 V2000
   -2.2500   -6.4952    0.0000 C   0  0  0  0  0  0  0  0  0  0  0  0
   -1.5000   -5.1962    0.0000 C   0  0  0  0  0  0  0  0  0  0  0  0
   -0.0000   -5.1962    0.0000 C   0  0  0  0  0  0  0  0  0  0  0  0
    0.7500   -3.8971    0.0000 C   0  0  0  0  0  0  0  0  0  0  0  0
   -0.0000   -2.5981    0.0000 C   0  0  0  0  0  0  0  0  0  0  0  0
    0.7500   -1.2990    0.0000 O   0  0  0  0  0  0  0  0  0  0  0  0
   -0.0000    0.0000    0.0000 P   0  0  0  0  0  0  0  0  0  0  0  0
   -1.5000    0.0000    0.0000 O   0  0  0  0  0  0  0  0  0  0  0  0
   -2.2500    1.2990    0.0000 C   0  0  0  0  0  0  0  0  0  0  0  0
   -1.5000    2.5981    0.0000 C   0  0  0  0  0  0  0  0  0  0  0  0
   -2.2500    3.8971    0.0000 C   0  0  0  0  0  0  0  0  0  0  0  0
   -3.7500    3.8971    0.0000 C   0  0  0  0  0  0  0  0  0  0  0  0
   -4.5000    5.1962    0.0000 C   0  0  0  0  0  0  0  0  0  0  0  0
   -4.5000    2.5981    0.0000 C   0  0  0  0  0  0  0  0  0  0  0  0
   -3.7500    1.2990    0.0000 C   0  0  0  0  0  0  0  0  0  0  0  0
    0.7500    1.2990    0.0000 O   0  0  0  0  0  0  0  0  0  0  0  0
    2.2500    1.2990    0.0000 C   0  0  0  0  0  0  0  0  0  0  0  0
    3.0000   -0.0000    0.0000 C   0  0  0  0  0  0  0  0  0  0  0  0
    4.5000   -0.0000    0.0000 C   0  0  0  0  0  0  0  0  0  0  0  0
    5.2500    1.2990    0.0000 C   0  0  0  0  0  0  0  0  0  0  0  0
    6.7500    1.2990    0.0000 C   0  0  0  0  0  0  0  0  0  0  0  0
    4.5000    2.5981    0.0000 C   0  0  0  0  0  0  0  0  0  0  0  0
    3.0000    2.5981    0.0000 C   0  0  0  0  0  0  0  0  0  0  0  0
   -1.5000   -2.5981    0.0000 C   0  0  0  0  0  0  0  0  0  0  0  0
   -2.2500   -3.8971    0.0000 C   0  0  0  0  0  0  0  0  0  0  0  0
  1  2  1  0
  2  3  2  0
  3  4  1  0
  4  5  2  0
  5  6  1  0
  6  7  1  0
  7  8  1  0
  8  9  1  0
  9 10  2  0
 10 11  1  0
 11 12  2  0
 12 13  1  0
 12 14  1  0
 14 15  2  0
  7 16  1  0
 16 17  1  0
 17 18  2  0
 18 19  1  0
 19 20  2  0
 20 21  1  0
 20 22  1  0
 22 23  2  0
  5 24  1  0
 24 25  2  0
 25  2  1  0
 15  9  1  0
 23 17  1  0
M  END
>  <linear_selectivity>  (552) 
43

>  <denticity>  (552) 
1

>  <ligand_class>  (552) 
phosphite

$$$$
P(O-p-Tol)3_80C_hexane
     RDKit          2D

 25 27  0  0  0  0  0  0  0  0999 V2000
   -2.2500   -6.4952    0.0000 C   0  0  0  0  0  0  0  0  0  0  0  0
   -1.5000   -5.1962    0.0000 C   0  0  0  0  0  0  0  0  0  0  0  0
   -0.0000   -5.1962    0.0000 C   0  0  0  0  0  0  0  0  0  0  0  0
    0.7500   -3.8971    0.0000 C   0  0  0  0  0  0  0  0  0  0  0  0
   -0.0000   -2.5981    0.0000 C   0  0  0  0  0  0  0  0  0  0  0  0
    0.7500   -1.2990    0.0000 O   0  0  0  0  0  0  0  0  0  0  0  0
   -0.0000    0.0000    0.0000 P   0  0  0  0  0  0  0  0  0  0  0  0
   -1.5000    0.0000    0.0000 O   0  0  0  0  0  0  0  0  0  0  0  0
   -2.2500    1.2990    0.0000 C   0  0  0  0  0  0  0  0  0  0  0  0
   -1.5000    2.5981    0.0000 C   0  0  0  0  0  0  0  0  0  0  0  0
   -2.2500    3.8971    0.0000 C   0  0  0  0  0  0  0  0  0  0  0  0
   -3.7500    3.8971    0.0000 C   0  0  0  0  0  0  0  0  0  0  0  0
   -4.5000    5.1962    0.0000 C   0  0  0  0  0  0  0  0  0  0  0  0
   -4.5000    2.5981    0.0000 C   0  0  0  0  0  0  0  0  0  0  0  0
   -3.7500    1.2990    0.0000 C   0  0  0  0  0  0  0  0  0  0  0  0
    0.7500    1.2990    0.0000 O   0  0  0  0  0  0  0  0  0  0  0  0
    2.2500    1.2990    0.0000 C   0  0  0  0  0  0  0  0  0  0  0  0
    3.0000   -0.0000    0.0000 C   0  0  0  0  0  0  0  0  0  0  0  0
    4.5000   -0.0000    0.0000 C   0  0  0  0  0  0  0  0  0  0  0  0
    5.2500    1.2990    0.0000 C   0  0  0  0  0  0  0  0  0  0  0  0
    6.7500    1.2990    0.0000 C   0  0  0  0  0  0  0  0  0  0  0  0
    4.5000    2.5981    0.0000 C   0  0  0  0  0  0  0  0  0  0  0  0
    3.0000    2.5981    0.0000 C   0  0  0  0  0  0  0  0  0  0  0  0
   -1.5000   -2.5981    0.0000 C   0  0  0  0  0  0  0  0  0  0  0  0
   -2.2500   -3.8971    0.0000 C   0  0  0  0  0  0  0  0  0  0  0  0
  1  2  1  0
  2  3  2  0
  3  4  1  0
  4  5  2  0
  5  6  1  0
  6  7  1  0
  7  8  1  0
  8  9  1  0
  9 10  2  0
 10 11  1  0
 11 12  2  0
 12 13  1  0
 12 14  1  0
 14 15  2  0
  7 16  1  0
 16 17  1  0
 17 18  2  0
 18 19  1  0
 19 20  2  0
 20 21  1  0
 20 22  1  0
 22 23  2  0
  5 24  1  0
 24 25  2  0
 25  2  1  0
 15  9  1  0
 23 17  1  0
M  END
>  <linear_selectivity>  (553) 
47

>  <denticity>  (553) 
1

>  <ligand_class>  (553) 
phosphite

$$$$
P(O-p-Tol)3_80C_benzene
     RDKit          2D

 25 27  0  0  0  0  0  0  0  0999 V2000
   -2.2500   -6.4952    0.0000 C   0  0  0  0  0  0  0  0  0  0  0  0
   -1.5000   -5.1962    0.0000 C   0  0  0  0  0  0  0  0  0  0  0  0
   -0.0000   -5.1962    0.0000 C   0  0  0  0  0  0  0  0  0  0  0  0
    0.7500   -3.8971    0.0000 C   0  0  0  0  0  0  0  0  0  0  0  0
   -0.0000   -2.5981    0.0000 C   0  0  0  0  0  0  0  0  0  0  0  0
    0.7500   -1.2990    0.0000 O   0  0  0  0  0  0  0  0  0  0  0  0
   -0.0000    0.0000    0.0000 P   0  0  0  0  0  0  0  0  0  0  0  0
   -1.5000    0.0000    0.0000 O   0  0  0  0  0  0  0  0  0  0  0  0
   -2.2500    1.2990    0.0000 C   0  0  0  0  0  0  0  0  0  0  0  0
   -1.5000    2.5981    0.0000 C   0  0  0  0  0  0  0  0  0  0  0  0
   -2.2500    3.8971    0.0000 C   0  0  0  0  0  0  0  0  0  0  0  0
   -3.7500    3.8971    0.0000 C   0  0  0  0  0  0  0  0  0  0  0  0
   -4.5000    5.1962    0.0000 C   0  0  0  0  0  0  0  0  0  0  0  0
   -4.5000    2.5981    0.0000 C   0  0  0  0  0  0  0  0  0  0  0  0
   -3.7500    1.2990    0.0000 C   0  0  0  0  0  0  0  0  0  0  0  0
    0.7500    1.2990    0.0000 O   0  0  0  0  0  0  0  0  0  0  0  0
    2.2500    1.2990    0.0000 C   0  0  0  0  0  0  0  0  0  0  0  0
    3.0000   -0.0000    0.0000 C   0  0  0  0  0  0  0  0  0  0  0  0
    4.5000   -0.0000    0.0000 C   0  0  0  0  0  0  0  0  0  0  0  0
    5.2500    1.2990    0.0000 C   0  0  0  0  0  0  0  0  0  0  0  0
    6.7500    1.2990    0.0000 C   0  0  0  0  0  0  0  0  0  0  0  0
    4.5000    2.5981    0.0000 C   0  0  0  0  0  0  0  0  0  0  0  0
    3.0000    2.5981    0.0000 C   0  0  0  0  0  0  0  0  0  0  0  0
   -1.5000   -2.5981    0.0000 C   0  0  0  0  0  0  0  0  0  0  0  0
   -2.2500   -3.8971    0.0000 C   0  0  0  0  0  0  0  0  0  0  0  0
  1  2  1  0
  2  3  2  0
  3  4  1  0
  4  5  2  0
  5  6  1  0
  6  7  1  0
  7  8  1  0
  8  9  1  0
  9 10  2  0
 10 11  1  0
 11 12  2  0
 12 13  1  0
 12 14  1  0
 14 15  2  0
  7 16  1  0
 16 17  1  0
 17 18  2  0
 18 19  1  0
 19 20  2  0
 20 21  1  0
 20 22  1  0
 22 23  2  0
  5 24  1  0
 24 25  2  0
 25  2  1  0
 15  9  1  0
 23 17  1  0
M  END
>  <linear_selectivity>  (554) 
41

>  <denticity>  (554) 
1

>  <ligand_class>  (554) 
phosphite

$$$$
P(O-p-Tol)3_80C_xylene
     RDKit          2D

 25 27  0  0  0  0  0  0  0  0999 V2000
   -2.2500   -6.4952    0.0000 C   0  0  0  0  0  0  0  0  0  0  0  0
   -1.5000   -5.1962    0.0000 C   0  0  0  0  0  0  0  0  0  0  0  0
   -0.0000   -5.1962    0.0000 C   0  0  0  0  0  0  0  0  0  0  0  0
    0.7500   -3.8971    0.0000 C   0  0  0  0  0  0  0  0  0  0  0  0
   -0.0000   -2.5981    0.0000 C   0  0  0  0  0  0  0  0  0  0  0  0
    0.7500   -1.2990    0.0000 O   0  0  0  0  0  0  0  0  0  0  0  0
   -0.0000    0.0000    0.0000 P   0  0  0  0  0  0  0  0  0  0  0  0
   -1.5000    0.0000    0.0000 O   0  0  0  0  0  0  0  0  0  0  0  0
   -2.2500    1.2990    0.0000 C   0  0  0  0  0  0  0  0  0  0  0  0
   -1.5000    2.5981    0.0000 C   0  0  0  0  0  0  0  0  0  0  0  0
   -2.2500    3.8971    0.0000 C   0  0  0  0  0  0  0  0  0  0  0  0
   -3.7500    3.8971    0.0000 C   0  0  0  0  0  0  0  0  0  0  0  0
   -4.5000    5.1962    0.0000 C   0  0  0  0  0  0  0  0  0  0  0  0
   -4.5000    2.5981    0.0000 C   0  0  0  0  0  0  0  0  0  0  0  0
   -3.7500    1.2990    0.0000 C   0  0  0  0  0  0  0  0  0  0  0  0
    0.7500    1.2990    0.0000 O   0  0  0  0  0  0  0  0  0  0  0  0
    2.2500    1.2990    0.0000 C   0  0  0  0  0  0  0  0  0  0  0  0
    3.0000   -0.0000    0.0000 C   0  0  0  0  0  0  0  0  0  0  0  0
    4.5000   -0.0000    0.0000 C   0  0  0  0  0  0  0  0  0  0  0  0
    5.2500    1.2990    0.0000 C   0  0  0  0  0  0  0  0  0  0  0  0
    6.7500    1.2990    0.0000 C   0  0  0  0  0  0  0  0  0  0  0  0
    4.5000    2.5981    0.0000 C   0  0  0  0  0  0  0  0  0  0  0  0
    3.0000    2.5981    0.0000 C   0  0  0  0  0  0  0  0  0  0  0  0
   -1.5000   -2.5981    0.0000 C   0  0  0  0  0  0  0  0  0  0  0  0
   -2.2500   -3.8971    0.0000 C   0  0  0  0  0  0  0  0  0  0  0  0
  1  2  1  0
  2  3  2  0
  3  4  1  0
  4  5  2  0
  5  6  1  0
  6  7  1  0
  7  8  1  0
  8  9  1  0
  9 10  2  0
 10 11  1  0
 11 12  2  0
 12 13  1  0
 12 14  1  0
 14 15  2  0
  7 16  1  0
 16 17  1  0
 17 18  2  0
 18 19  1  0
 19 20  2  0
 20 21  1  0
 20 22  1  0
 22 23  2  0
  5 24  1  0
 24 25  2  0
 25  2  1  0
 15  9  1  0
 23 17  1  0
M  END
>  <linear_selectivity>  (555) 
43

>  <denticity>  (555) 
1

>  <ligand_class>  (555) 
phosphite

$$$$
P(O-p-Tol)3_90C_toluene
     RDKit          2D

 25 27  0  0  0  0  0  0  0  0999 V2000
   -2.2500   -6.4952    0.0000 C   0  0  0  0  0  0  0  0  0  0  0  0
   -1.5000   -5.1962    0.0000 C   0  0  0  0  0  0  0  0  0  0  0  0
   -0.0000   -5.1962    0.0000 C   0  0  0  0  0  0  0  0  0  0  0  0
    0.7500   -3.8971    0.0000 C   0  0  0  0  0  0  0  0  0  0  0  0
   -0.0000   -2.5981    0.0000 C   0  0  0  0  0  0  0  0  0  0  0  0
    0.7500   -1.2990    0.0000 O   0  0  0  0  0  0  0  0  0  0  0  0
   -0.0000    0.0000    0.0000 P   0  0  0  0  0  0  0  0  0  0  0  0
   -1.5000    0.0000    0.0000 O   0  0  0  0  0  0  0  0  0  0  0  0
   -2.2500    1.2990    0.0000 C   0  0  0  0  0  0  0  0  0  0  0  0
   -1.5000    2.5981    0.0000 C   0  0  0  0  0  0  0  0  0  0  0  0
   -2.2500    3.8971    0.0000 C   0  0  0  0  0  0  0  0  0  0  0  0
   -3.7500    3.8971    0.0000 C   0  0  0  0  0  0  0  0  0  0  0  0
   -4.5000    5.1962    0.0000 C   0  0  0  0  0  0  0  0  0  0  0  0
   -4.5000    2.5981    0.0000 C   0  0  0  0  0  0  0  0  0  0  0  0
   -3.7500    1.2990    0.0000 C   0  0  0  0  0  0  0  0  0  0  0  0
    0.7500    1.2990    0.0000 O   0  0  0  0  0  0  0  0  0  0  0  0
    2.2500    1.2990    0.0000 C   0  0  0  0  0  0  0  0  0  0  0  0
    3.0000   -0.0000    0.0000 C   0  0  0  0  0  0  0  0  0  0  0  0
    4.5000   -0.0000    0.0000 C   0  0  0  0  0  0  0  0  0  0  0  0
    5.2500    1.2990    0.0000 C   0  0  0  0  0  0  0  0  0  0  0  0
    6.7500    1.2990    0.0000 C   0  0  0  0  0  0  0  0  0  0  0  0
    4.5000    2.5981    0.0000 C   0  0  0  0  0  0  0  0  0  0  0  0
    3.0000    2.5981    0.0000 C   0  0  0  0  0  0  0  0  0  0  0  0
   -1.5000   -2.5981    0.0000 C   0  0  0  0  0  0  0  0  0  0  0  0
   -2.2500   -3.8971    0.0000 C   0  0  0  0  0  0  0  0  0  0  0  0
  1  2  1  0
  2  3  2  0
  3  4  1  0
  4  5  2  0
  5  6  1  0
  6  7  1  0
  7  8  1  0
  8  9  1  0
  9 10  2  0
 10 11  1  0
 11 12  2  0
 12 13  1  0
 12 14  1  0
 14 15  2  0
  7 16  1  0
 16 17  1  0
 17 18  2  0
 18 19  1  0
 19 20  2  0
 20 21  1  0
 20 22  1  0
 22 23  2  0
  5 24  1  0
 24 25  2  0
 25  2  1  0
 15  9  1  0
 23 17  1  0
M  END
>  <linear_selectivity>  (556) 
41

>  <denticity>  (556) 
1

>  <ligand_class>  (556) 
phosphite

$$$$
P(O-p-Tol)3_90C_THF
     RDKit          2D

 25 27  0  0  0  0  0  0  0  0999 V2000
   -2.2500   -6.4952    0.0000 C   0  0  0  0  0  0  0  0  0  0  0  0
   -1.5000   -5.1962    0.0000 C   0  0  0  0  0  0  0  0  0  0  0  0
   -0.0000   -5.1962    0.0000 C   0  0  0  0  0  0  0  0  0  0  0  0
    0.7500   -3.8971    0.0000 C   0  0  0  0  0  0  0  0  0  0  0  0
   -0.0000   -2.5981    0.0000 C   0  0  0  0  0  0  0  0  0  0  0  0
    0.7500   -1.2990    0.0000 O   0  0  0  0  0  0  0  0  0  0  0  0
   -0.0000    0.0000    0.0000 P   0  0  0  0  0  0  0  0  0  0  0  0
   -1.5000    0.0000    0.0000 O   0  0  0  0  0  0  0  0  0  0  0  0
   -2.2500    1.2990    0.0000 C   0  0  0  0  0  0  0  0  0  0  0  0
   -1.5000    2.5981    0.0000 C   0  0  0  0  0  0  0  0  0  0  0  0
   -2.2500    3.8971    0.0000 C   0  0  0  0  0  0  0  0  0  0  0  0
   -3.7500    3.8971    0.0000 C   0  0  0  0  0  0  0  0  0  0  0  0
   -4.5000    5.1962    0.0000 C   0  0  0  0  0  0  0  0  0  0  0  0
   -4.5000    2.5981    0.0000 C   0  0  0  0  0  0  0  0  0  0  0  0
   -3.7500    1.2990    0.0000 C   0  0  0  0  0  0  0  0  0  0  0  0
    0.7500    1.2990    0.0000 O   0  0  0  0  0  0  0  0  0  0  0  0
    2.2500    1.2990    0.0000 C   0  0  0  0  0  0  0  0  0  0  0  0
    3.0000   -0.0000    0.0000 C   0  0  0  0  0  0  0  0  0  0  0  0
    4.5000   -0.0000    0.0000 C   0  0  0  0  0  0  0  0  0  0  0  0
    5.2500    1.2990    0.0000 C   0  0  0  0  0  0  0  0  0  0  0  0
    6.7500    1.2990    0.0000 C   0  0  0  0  0  0  0  0  0  0  0  0
    4.5000    2.5981    0.0000 C   0  0  0  0  0  0  0  0  0  0  0  0
    3.0000    2.5981    0.0000 C   0  0  0  0  0  0  0  0  0  0  0  0
   -1.5000   -2.5981    0.0000 C   0  0  0  0  0  0  0  0  0  0  0  0
   -2.2500   -3.8971    0.0000 C   0  0  0  0  0  0  0  0  0  0  0  0
  1  2  1  0
  2  3  2  0
  3  4  1  0
  4  5  2  0
  5  6  1  0
  6  7  1  0
  7  8  1  0
  8  9  1  0
  9 10  2  0
 10 11  1  0
 11 12  2  0
 12 13  1  0
 12 14  1  0
 14 15  2  0
  7 16  1  0
 16 17  1  0
 17 18  2  0
 18 19  1  0
 19 20  2  0
 20 21  1  0
 20 22  1  0
 22 23  2  0
  5 24  1  0
 24 25  2  0
 25  2  1  0
 15  9  1  0
 23 17  1  0
M  END
>  <linear_selectivity>  (557) 
43

>  <denticity>  (557) 
1

>  <ligand_class>  (557) 
phosphite

$$$$
P(O-p-Tol)3_90C_dioxane
     RDKit          2D

 25 27  0  0  0  0  0  0  0  0999 V2000
   -2.2500   -6.4952    0.0000 C   0  0  0  0  0  0  0  0  0  0  0  0
   -1.5000   -5.1962    0.0000 C   0  0  0  0  0  0  0  0  0  0  0  0
   -0.0000   -5.1962    0.0000 C   0  0  0  0  0  0  0  0  0  0  0  0
    0.7500   -3.8971    0.0000 C   0  0  0  0  0  0  0  0  0  0  0  0
   -0.0000   -2.5981    0.0000 C   0  0  0  0  0  0  0  0  0  0  0  0
    0.7500   -1.2990    0.0000 O   0  0  0  0  0  0  0  0  0  0  0  0
   -0.0000    0.0000    0.0000 P   0  0  0  0  0  0  0  0  0  0  0  0
   -1.5000    0.0000    0.0000 O   0  0  0  0  0  0  0  0  0  0  0  0
   -2.2500    1.2990    0.0000 C   0  0  0  0  0  0  0  0  0  0  0  0
   -1.5000    2.5981    0.0000 C   0  0  0  0  0  0  0  0  0  0  0  0
   -2.2500    3.8971    0.0000 C   0  0  0  0  0  0  0  0  0  0  0  0
   -3.7500    3.8971    0.0000 C   0  0  0  0  0  0  0  0  0  0  0  0
   -4.5000    5.1962    0.0000 C   0  0  0  0  0  0  0  0  0  0  0  0
   -4.5000    2.5981    0.0000 C   0  0  0  0  0  0  0  0  0  0  0  0
   -3.7500    1.2990    0.0000 C   0  0  0  0  0  0  0  0  0  0  0  0
    0.7500    1.2990    0.0000 O   0  0  0  0  0  0  0  0  0  0  0  0
    2.2500    1.2990    0.0000 C   0  0  0  0  0  0  0  0  0  0  0  0
    3.0000   -0.0000    0.0000 C   0  0  0  0  0  0  0  0  0  0  0  0
    4.5000   -0.0000    0.0000 C   0  0  0  0  0  0  0  0  0  0  0  0
    5.2500    1.2990    0.0000 C   0  0  0  0  0  0  0  0  0  0  0  0
    6.7500    1.2990    0.0000 C   0  0  0  0  0  0  0  0  0  0  0  0
    4.5000    2.5981    0.0000 C   0  0  0  0  0  0  0  0  0  0  0  0
    3.0000    2.5981    0.0000 C   0  0  0  0  0  0  0  0  0  0  0  0
   -1.5000   -2.5981    0.0000 C   0  0  0  0  0  0  0  0  0  0  0  0
   -2.2500   -3.8971    0.0000 C   0  0  0  0  0  0  0  0  0  0  0  0
  1  2  1  0
  2  3  2  0
  3  4  1  0
  4  5  2  0
  5  6  1  0
  6  7  1  0
  7  8  1  0
  8  9  1  0
  9 10  2  0
 10 11  1  0
 11 12  2  0
 12 13  1  0
 12 14  1  0
 14 15  2  0
  7 16  1  0
 16 17  1  0
 17 18  2  0
 18 19  1  0
 19 20  2  0
 20 21  1  0
 20 22  1  0
 22 23  2  0
  5 24  1  0
 24 25  2  0
 25  2  1  0
 15  9  1  0
 23 17  1  0
M  END
>  <linear_selectivity>  (558) 
43

>  <denticity>  (558) 
1

>  <ligand_class>  (558) 
phosphite

$$$$
P(O-p-Tol)3_90C_hexane
     RDKit          2D

 25 27  0  0  0  0  0  0  0  0999 V2000
   -2.2500   -6.4952    0.0000 C   0  0  0  0  0  0  0  0  0  0  0  0
   -1.5000   -5.1962    0.0000 C   0  0  0  0  0  0  0  0  0  0  0  0
   -0.0000   -5.1962    0.0000 C   0  0  0  0  0  0  0  0  0  0  0  0
    0.7500   -3.8971    0.0000 C   0  0  0  0  0  0  0  0  0  0  0  0
   -0.0000   -2.5981    0.0000 C   0  0  0  0  0  0  0  0  0  0  0  0
    0.7500   -1.2990    0.0000 O   0  0  0  0  0  0  0  0  0  0  0  0
   -0.0000    0.0000    0.0000 P   0  0  0  0  0  0  0  0  0  0  0  0
   -1.5000    0.0000    0.0000 O   0  0  0  0  0  0  0  0  0  0  0  0
   -2.2500    1.2990    0.0000 C   0  0  0  0  0  0  0  0  0  0  0  0
   -1.5000    2.5981    0.0000 C   0  0  0  0  0  0  0  0  0  0  0  0
   -2.2500    3.8971    0.0000 C   0  0  0  0  0  0  0  0  0  0  0  0
   -3.7500    3.8971    0.0000 C   0  0  0  0  0  0  0  0  0  0  0  0
   -4.5000    5.1962    0.0000 C   0  0  0  0  0  0  0  0  0  0  0  0
   -4.5000    2.5981    0.0000 C   0  0  0  0  0  0  0  0  0  0  0  0
   -3.7500    1.2990    0.0000 C   0  0  0  0  0  0  0  0  0  0  0  0
    0.7500    1.2990    0.0000 O   0  0  0  0  0  0  0  0  0  0  0  0
    2.2500    1.2990    0.0000 C   0  0  0  0  0  0  0  0  0  0  0  0
    3.0000   -0.0000    0.0000 C   0  0  0  0  0  0  0  0  0  0  0  0
    4.5000   -0.0000    0.0000 C   0  0  0  0  0  0  0  0  0  0  0  0
    5.2500    1.2990    0.0000 C   0  0  0  0  0  0  0  0  0  0  0  0
    6.7500    1.2990    0.0000 C   0  0  0  0  0  0  0  0  0  0  0  0
    4.5000    2.5981    0.0000 C   0  0  0  0  0  0  0  0  0  0  0  0
    3.0000    2.5981    0.0000 C   0  0  0  0  0  0  0  0  0  0  0  0
   -1.5000   -2.5981    0.0000 C   0  0  0  0  0  0  0  0  0  0  0  0
   -2.2500   -3.8971    0.0000 C   0  0  0  0  0  0  0  0  0  0  0  0
  1  2  1  0
  2  3  2  0
  3  4  1  0
  4  5  2  0
  5  6  1  0
  6  7  1  0
  7  8  1  0
  8  9  1  0
  9 10  2  0
 10 11  1  0
 11 12  2  0
 12 13  1  0
 12 14  1  0
 14 15  2  0
  7 16  1  0
 16 17  1  0
 17 18  2  0
 18 19  1  0
 19 20  2  0
 20 21  1  0
 20 22  1  0
 22 23  2  0
  5 24  1  0
 24 25  2  0
 25  2  1  0
 15  9  1  0
 23 17  1  0
M  END
>  <linear_selectivity>  (559) 
47

>  <denticity>  (559) 
1

>  <ligand_class>  (559) 
phosphite

$$$$
P(O-p-Tol)3_90C_benzene
     RDKit          2D

 25 27  0  0  0  0  0  0  0  0999 V2000
   -2.2500   -6.4952    0.0000 C   0  0  0  0  0  0  0  0  0  0  0  0
   -1.5000   -5.1962    0.0000 C   0  0  0  0  0  0  0  0  0  0  0  0
   -0.0000   -5.1962    0.0000 C   0  0  0  0  0  0  0  0  0  0  0  0
    0.7500   -3.8971    0.0000 C   0  0  0  0  0  0  0  0  0  0  0  0
   -0.0000   -2.5981    0.0000 C   0  0  0  0  0  0  0  0  0  0  0  0
    0.7500   -1.2990    0.0000 O   0  0  0  0  0  0  0  0  0  0  0  0
   -0.0000    0.0000    0.0000 P   0  0  0  0  0  0  0  0  0  0  0  0
   -1.5000    0.0000    0.0000 O   0  0  0  0  0  0  0  0  0  0  0  0
   -2.2500    1.2990    0.0000 C   0  0  0  0  0  0  0  0  0  0  0  0
   -1.5000    2.5981    0.0000 C   0  0  0  0  0  0  0  0  0  0  0  0
   -2.2500    3.8971    0.0000 C   0  0  0  0  0  0  0  0  0  0  0  0
   -3.7500    3.8971    0.0000 C   0  0  0  0  0  0  0  0  0  0  0  0
   -4.5000    5.1962    0.0000 C   0  0  0  0  0  0  0  0  0  0  0  0
   -4.5000    2.5981    0.0000 C   0  0  0  0  0  0  0  0  0  0  0  0
   -3.7500    1.2990    0.0000 C   0  0  0  0  0  0  0  0  0  0  0  0
    0.7500    1.2990    0.0000 O   0  0  0  0  0  0  0  0  0  0  0  0
    2.2500    1.2990    0.0000 C   0  0  0  0  0  0  0  0  0  0  0  0
    3.0000   -0.0000    0.0000 C   0  0  0  0  0  0  0  0  0  0  0  0
    4.5000   -0.0000    0.0000 C   0  0  0  0  0  0  0  0  0  0  0  0
    5.2500    1.2990    0.0000 C   0  0  0  0  0  0  0  0  0  0  0  0
    6.7500    1.2990    0.0000 C   0  0  0  0  0  0  0  0  0  0  0  0
    4.5000    2.5981    0.0000 C   0  0  0  0  0  0  0  0  0  0  0  0
    3.0000    2.5981    0.0000 C   0  0  0  0  0  0  0  0  0  0  0  0
   -1.5000   -2.5981    0.0000 C   0  0  0  0  0  0  0  0  0  0  0  0
   -2.2500   -3.8971    0.0000 C   0  0  0  0  0  0  0  0  0  0  0  0
  1  2  1  0
  2  3  2  0
  3  4  1  0
  4  5  2  0
  5  6  1  0
  6  7  1  0
  7  8  1  0
  8  9  1  0
  9 10  2  0
 10 11  1  0
 11 12  2  0
 12 13  1  0
 12 14  1  0
 14 15  2  0
  7 16  1  0
 16 17  1  0
 17 18  2  0
 18 19  1  0
 19 20  2  0
 20 21  1  0
 20 22  1  0
 22 23  2  0
  5 24  1  0
 24 25  2  0
 25  2  1  0
 15  9  1  0
 23 17  1  0
M  END
>  <linear_selectivity>  (560) 
45

>  <denticity>  (560) 
1

>  <ligand_class>  (560) 
phosphite

$$$$
P(O-p-Tol)3_100C_dioxane
     RDKit          2D

 25 27  0  0  0  0  0  0  0  0999 V2000
   -2.2500   -6.4952    0.0000 C   0  0  0  0  0  0  0  0  0  0  0  0
   -1.5000   -5.1962    0.0000 C   0  0  0  0  0  0  0  0  0  0  0  0
   -0.0000   -5.1962    0.0000 C   0  0  0  0  0  0  0  0  0  0  0  0
    0.7500   -3.8971    0.0000 C   0  0  0  0  0  0  0  0  0  0  0  0
   -0.0000   -2.5981    0.0000 C   0  0  0  0  0  0  0  0  0  0  0  0
    0.7500   -1.2990    0.0000 O   0  0  0  0  0  0  0  0  0  0  0  0
   -0.0000    0.0000    0.0000 P   0  0  0  0  0  0  0  0  0  0  0  0
   -1.5000    0.0000    0.0000 O   0  0  0  0  0  0  0  0  0  0  0  0
   -2.2500    1.2990    0.0000 C   0  0  0  0  0  0  0  0  0  0  0  0
   -1.5000    2.5981    0.0000 C   0  0  0  0  0  0  0  0  0  0  0  0
   -2.2500    3.8971    0.0000 C   0  0  0  0  0  0  0  0  0  0  0  0
   -3.7500    3.8971    0.0000 C   0  0  0  0  0  0  0  0  0  0  0  0
   -4.5000    5.1962    0.0000 C   0  0  0  0  0  0  0  0  0  0  0  0
   -4.5000    2.5981    0.0000 C   0  0  0  0  0  0  0  0  0  0  0  0
   -3.7500    1.2990    0.0000 C   0  0  0  0  0  0  0  0  0  0  0  0
    0.7500    1.2990    0.0000 O   0  0  0  0  0  0  0  0  0  0  0  0
    2.2500    1.2990    0.0000 C   0  0  0  0  0  0  0  0  0  0  0  0
    3.0000   -0.0000    0.0000 C   0  0  0  0  0  0  0  0  0  0  0  0
    4.5000   -0.0000    0.0000 C   0  0  0  0  0  0  0  0  0  0  0  0
    5.2500    1.2990    0.0000 C   0  0  0  0  0  0  0  0  0  0  0  0
    6.7500    1.2990    0.0000 C   0  0  0  0  0  0  0  0  0  0  0  0
    4.5000    2.5981    0.0000 C   0  0  0  0  0  0  0  0  0  0  0  0
    3.0000    2.5981    0.0000 C   0  0  0  0  0  0  0  0  0  0  0  0
   -1.5000   -2.5981    0.0000 C   0  0  0  0  0  0  0  0  0  0  0  0
   -2.2500   -3.8971    0.0000 C   0  0  0  0  0  0  0  0  0  0  0  0
  1  2  1  0
  2  3  2  0
  3  4  1  0
  4  5  2  0
  5  6  1  0
  6  7  1  0
  7  8  1  0
  8  9  1  0
  9 10  2  0
 10 11  1  0
 11 12  2  0
 12 13  1  0
 12 14  1  0
 14 15  2  0
  7 16  1  0
 16 17  1  0
 17 18  2  0
 18 19  1  0
 19 20  2  0
 20 21  1  0
 20 22  1  0
 22 23  2  0
  5 24  1  0
 24 25  2  0
 25  2  1  0
 15  9  1  0
 23 17  1  0
M  END
>  <linear_selectivity>  (561) 
42

>  <denticity>  (561) 
1

>  <ligand_class>  (561) 
phosphite

$$$$
P(O-p-Tol)3_100C_hexane
     RDKit          2D

 25 27  0  0  0  0  0  0  0  0999 V2000
   -2.2500   -6.4952    0.0000 C   0  0  0  0  0  0  0  0  0  0  0  0
   -1.5000   -5.1962    0.0000 C   0  0  0  0  0  0  0  0  0  0  0  0
   -0.0000   -5.1962    0.0000 C   0  0  0  0  0  0  0  0  0  0  0  0
    0.7500   -3.8971    0.0000 C   0  0  0  0  0  0  0  0  0  0  0  0
   -0.0000   -2.5981    0.0000 C   0  0  0  0  0  0  0  0  0  0  0  0
    0.7500   -1.2990    0.0000 O   0  0  0  0  0  0  0  0  0  0  0  0
   -0.0000    0.0000    0.0000 P   0  0  0  0  0  0  0  0  0  0  0  0
   -1.5000    0.0000    0.0000 O   0  0  0  0  0  0  0  0  0  0  0  0
   -2.2500    1.2990    0.0000 C   0  0  0  0  0  0  0  0  0  0  0  0
   -1.5000    2.5981    0.0000 C   0  0  0  0  0  0  0  0  0  0  0  0
   -2.2500    3.8971    0.0000 C   0  0  0  0  0  0  0  0  0  0  0  0
   -3.7500    3.8971    0.0000 C   0  0  0  0  0  0  0  0  0  0  0  0
   -4.5000    5.1962    0.0000 C   0  0  0  0  0  0  0  0  0  0  0  0
   -4.5000    2.5981    0.0000 C   0  0  0  0  0  0  0  0  0  0  0  0
   -3.7500    1.2990    0.0000 C   0  0  0  0  0  0  0  0  0  0  0  0
    0.7500    1.2990    0.0000 O   0  0  0  0  0  0  0  0  0  0  0  0
    2.2500    1.2990    0.0000 C   0  0  0  0  0  0  0  0  0  0  0  0
    3.0000   -0.0000    0.0000 C   0  0  0  0  0  0  0  0  0  0  0  0
    4.5000   -0.0000    0.0000 C   0  0  0  0  0  0  0  0  0  0  0  0
    5.2500    1.2990    0.0000 C   0  0  0  0  0  0  0  0  0  0  0  0
    6.7500    1.2990    0.0000 C   0  0  0  0  0  0  0  0  0  0  0  0
    4.5000    2.5981    0.0000 C   0  0  0  0  0  0  0  0  0  0  0  0
    3.0000    2.5981    0.0000 C   0  0  0  0  0  0  0  0  0  0  0  0
   -1.5000   -2.5981    0.0000 C   0  0  0  0  0  0  0  0  0  0  0  0
   -2.2500   -3.8971    0.0000 C   0  0  0  0  0  0  0  0  0  0  0  0
  1  2  1  0
  2  3  2  0
  3  4  1  0
  4  5  2  0
  5  6  1  0
  6  7  1  0
  7  8  1  0
  8  9  1  0
  9 10  2  0
 10 11  1  0
 11 12  2  0
 12 13  1  0
 12 14  1  0
 14 15  2  0
  7 16  1  0
 16 17  1  0
 17 18  2  0
 18 19  1  0
 19 20  2  0
 20 21  1  0
 20 22  1  0
 22 23  2  0
  5 24  1  0
 24 25  2  0
 25  2  1  0
 15  9  1  0
 23 17  1  0
M  END
>  <linear_selectivity>  (562) 
44

>  <denticity>  (562) 
1

>  <ligand_class>  (562) 
phosphite

$$$$
P(O-p-Tol)3_110C_toluene
     RDKit          2D

 25 27  0  0  0  0  0  0  0  0999 V2000
   -2.2500   -6.4952    0.0000 C   0  0  0  0  0  0  0  0  0  0  0  0
   -1.5000   -5.1962    0.0000 C   0  0  0  0  0  0  0  0  0  0  0  0
   -0.0000   -5.1962    0.0000 C   0  0  0  0  0  0  0  0  0  0  0  0
    0.7500   -3.8971    0.0000 C   0  0  0  0  0  0  0  0  0  0  0  0
   -0.0000   -2.5981    0.0000 C   0  0  0  0  0  0  0  0  0  0  0  0
    0.7500   -1.2990    0.0000 O   0  0  0  0  0  0  0  0  0  0  0  0
   -0.0000    0.0000    0.0000 P   0  0  0  0  0  0  0  0  0  0  0  0
   -1.5000    0.0000    0.0000 O   0  0  0  0  0  0  0  0  0  0  0  0
   -2.2500    1.2990    0.0000 C   0  0  0  0  0  0  0  0  0  0  0  0
   -1.5000    2.5981    0.0000 C   0  0  0  0  0  0  0  0  0  0  0  0
   -2.2500    3.8971    0.0000 C   0  0  0  0  0  0  0  0  0  0  0  0
   -3.7500    3.8971    0.0000 C   0  0  0  0  0  0  0  0  0  0  0  0
   -4.5000    5.1962    0.0000 C   0  0  0  0  0  0  0  0  0  0  0  0
   -4.5000    2.5981    0.0000 C   0  0  0  0  0  0  0  0  0  0  0  0
   -3.7500    1.2990    0.0000 C   0  0  0  0  0  0  0  0  0  0  0  0
    0.7500    1.2990    0.0000 O   0  0  0  0  0  0  0  0  0  0  0  0
    2.2500    1.2990    0.0000 C   0  0  0  0  0  0  0  0  0  0  0  0
    3.0000   -0.0000    0.0000 C   0  0  0  0  0  0  0  0  0  0  0  0
    4.5000   -0.0000    0.0000 C   0  0  0  0  0  0  0  0  0  0  0  0
    5.2500    1.2990    0.0000 C   0  0  0  0  0  0  0  0  0  0  0  0
    6.7500    1.2990    0.0000 C   0  0  0  0  0  0  0  0  0  0  0  0
    4.5000    2.5981    0.0000 C   0  0  0  0  0  0  0  0  0  0  0  0
    3.0000    2.5981    0.0000 C   0  0  0  0  0  0  0  0  0  0  0  0
   -1.5000   -2.5981    0.0000 C   0  0  0  0  0  0  0  0  0  0  0  0
   -2.2500   -3.8971    0.0000 C   0  0  0  0  0  0  0  0  0  0  0  0
  1  2  1  0
  2  3  2  0
  3  4  1  0
  4  5  2  0
  5  6  1  0
  6  7  1  0
  7  8  1  0
  8  9  1  0
  9 10  2  0
 10 11  1  0
 11 12  2  0
 12 13  1  0
 12 14  1  0
 14 15  2  0
  7 16  1  0
 16 17  1  0
 17 18  2  0
 18 19  1  0
 19 20  2  0
 20 21  1  0
 20 22  1  0
 22 23  2  0
  5 24  1  0
 24 25  2  0
 25  2  1  0
 15  9  1  0
 23 17  1  0
M  END
>  <linear_selectivity>  (563) 
41

>  <denticity>  (563) 
1

>  <ligand_class>  (563) 
phosphite

$$$$
P(O-p-Tol)3_110C_THF
     RDKit          2D

 25 27  0  0  0  0  0  0  0  0999 V2000
   -2.2500   -6.4952    0.0000 C   0  0  0  0  0  0  0  0  0  0  0  0
   -1.5000   -5.1962    0.0000 C   0  0  0  0  0  0  0  0  0  0  0  0
   -0.0000   -5.1962    0.0000 C   0  0  0  0  0  0  0  0  0  0  0  0
    0.7500   -3.8971    0.0000 C   0  0  0  0  0  0  0  0  0  0  0  0
   -0.0000   -2.5981    0.0000 C   0  0  0  0  0  0  0  0  0  0  0  0
    0.7500   -1.2990    0.0000 O   0  0  0  0  0  0  0  0  0  0  0  0
   -0.0000    0.0000    0.0000 P   0  0  0  0  0  0  0  0  0  0  0  0
   -1.5000    0.0000    0.0000 O   0  0  0  0  0  0  0  0  0  0  0  0
   -2.2500    1.2990    0.0000 C   0  0  0  0  0  0  0  0  0  0  0  0
   -1.5000    2.5981    0.0000 C   0  0  0  0  0  0  0  0  0  0  0  0
   -2.2500    3.8971    0.0000 C   0  0  0  0  0  0  0  0  0  0  0  0
   -3.7500    3.8971    0.0000 C   0  0  0  0  0  0  0  0  0  0  0  0
   -4.5000    5.1962    0.0000 C   0  0  0  0  0  0  0  0  0  0  0  0
   -4.5000    2.5981    0.0000 C   0  0  0  0  0  0  0  0  0  0  0  0
   -3.7500    1.2990    0.0000 C   0  0  0  0  0  0  0  0  0  0  0  0
    0.7500    1.2990    0.0000 O   0  0  0  0  0  0  0  0  0  0  0  0
    2.2500    1.2990    0.0000 C   0  0  0  0  0  0  0  0  0  0  0  0
    3.0000   -0.0000    0.0000 C   0  0  0  0  0  0  0  0  0  0  0  0
    4.5000   -0.0000    0.0000 C   0  0  0  0  0  0  0  0  0  0  0  0
    5.2500    1.2990    0.0000 C   0  0  0  0  0  0  0  0  0  0  0  0
    6.7500    1.2990    0.0000 C   0  0  0  0  0  0  0  0  0  0  0  0
    4.5000    2.5981    0.0000 C   0  0  0  0  0  0  0  0  0  0  0  0
    3.0000    2.5981    0.0000 C   0  0  0  0  0  0  0  0  0  0  0  0
   -1.5000   -2.5981    0.0000 C   0  0  0  0  0  0  0  0  0  0  0  0
   -2.2500   -3.8971    0.0000 C   0  0  0  0  0  0  0  0  0  0  0  0
  1  2  1  0
  2  3  2  0
  3  4  1  0
  4  5  2  0
  5  6  1  0
  6  7  1  0
  7  8  1  0
  8  9  1  0
  9 10  2  0
 10 11  1  0
 11 12  2  0
 12 13  1  0
 12 14  1  0
 14 15  2  0
  7 16  1  0
 16 17  1  0
 17 18  2  0
 18 19  1  0
 19 20  2  0
 20 21  1  0
 20 22  1  0
 22 23  2  0
  5 24  1  0
 24 25  2  0
 25  2  1  0
 15  9  1  0
 23 17  1  0
M  END
>  <linear_selectivity>  (564) 
37

>  <denticity>  (564) 
1

>  <ligand_class>  (564) 
phosphite

$$$$
P(O-p-Tol)3_110C_hexane
     RDKit          2D

 25 27  0  0  0  0  0  0  0  0999 V2000
   -2.2500   -6.4952    0.0000 C   0  0  0  0  0  0  0  0  0  0  0  0
   -1.5000   -5.1962    0.0000 C   0  0  0  0  0  0  0  0  0  0  0  0
   -0.0000   -5.1962    0.0000 C   0  0  0  0  0  0  0  0  0  0  0  0
    0.7500   -3.8971    0.0000 C   0  0  0  0  0  0  0  0  0  0  0  0
   -0.0000   -2.5981    0.0000 C   0  0  0  0  0  0  0  0  0  0  0  0
    0.7500   -1.2990    0.0000 O   0  0  0  0  0  0  0  0  0  0  0  0
   -0.0000    0.0000    0.0000 P   0  0  0  0  0  0  0  0  0  0  0  0
   -1.5000    0.0000    0.0000 O   0  0  0  0  0  0  0  0  0  0  0  0
   -2.2500    1.2990    0.0000 C   0  0  0  0  0  0  0  0  0  0  0  0
   -1.5000    2.5981    0.0000 C   0  0  0  0  0  0  0  0  0  0  0  0
   -2.2500    3.8971    0.0000 C   0  0  0  0  0  0  0  0  0  0  0  0
   -3.7500    3.8971    0.0000 C   0  0  0  0  0  0  0  0  0  0  0  0
   -4.5000    5.1962    0.0000 C   0  0  0  0  0  0  0  0  0  0  0  0
   -4.5000    2.5981    0.0000 C   0  0  0  0  0  0  0  0  0  0  0  0
   -3.7500    1.2990    0.0000 C   0  0  0  0  0  0  0  0  0  0  0  0
    0.7500    1.2990    0.0000 O   0  0  0  0  0  0  0  0  0  0  0  0
    2.2500    1.2990    0.0000 C   0  0  0  0  0  0  0  0  0  0  0  0
    3.0000   -0.0000    0.0000 C   0  0  0  0  0  0  0  0  0  0  0  0
    4.5000   -0.0000    0.0000 C   0  0  0  0  0  0  0  0  0  0  0  0
    5.2500    1.2990    0.0000 C   0  0  0  0  0  0  0  0  0  0  0  0
    6.7500    1.2990    0.0000 C   0  0  0  0  0  0  0  0  0  0  0  0
    4.5000    2.5981    0.0000 C   0  0  0  0  0  0  0  0  0  0  0  0
    3.0000    2.5981    0.0000 C   0  0  0  0  0  0  0  0  0  0  0  0
   -1.5000   -2.5981    0.0000 C   0  0  0  0  0  0  0  0  0  0  0  0
   -2.2500   -3.8971    0.0000 C   0  0  0  0  0  0  0  0  0  0  0  0
  1  2  1  0
  2  3  2  0
  3  4  1  0
  4  5  2  0
  5  6  1  0
  6  7  1  0
  7  8  1  0
  8  9  1  0
  9 10  2  0
 10 11  1  0
 11 12  2  0
 12 13  1  0
 12 14  1  0
 14 15  2  0
  7 16  1  0
 16 17  1  0
 17 18  2  0
 18 19  1  0
 19 20  2  0
 20 21  1  0
 20 22  1  0
 22 23  2  0
  5 24  1  0
 24 25  2  0
 25  2  1  0
 15  9  1  0
 23 17  1  0
M  END
>  <linear_selectivity>  (565) 
44

>  <denticity>  (565) 
1

>  <ligand_class>  (565) 
phosphite

$$$$
P(O-p-Tol)3_110C_xylene
     RDKit          2D

 25 27  0  0  0  0  0  0  0  0999 V2000
   -2.2500   -6.4952    0.0000 C   0  0  0  0  0  0  0  0  0  0  0  0
   -1.5000   -5.1962    0.0000 C   0  0  0  0  0  0  0  0  0  0  0  0
   -0.0000   -5.1962    0.0000 C   0  0  0  0  0  0  0  0  0  0  0  0
    0.7500   -3.8971    0.0000 C   0  0  0  0  0  0  0  0  0  0  0  0
   -0.0000   -2.5981    0.0000 C   0  0  0  0  0  0  0  0  0  0  0  0
    0.7500   -1.2990    0.0000 O   0  0  0  0  0  0  0  0  0  0  0  0
   -0.0000    0.0000    0.0000 P   0  0  0  0  0  0  0  0  0  0  0  0
   -1.5000    0.0000    0.0000 O   0  0  0  0  0  0  0  0  0  0  0  0
   -2.2500    1.2990    0.0000 C   0  0  0  0  0  0  0  0  0  0  0  0
   -1.5000    2.5981    0.0000 C   0  0  0  0  0  0  0  0  0  0  0  0
   -2.2500    3.8971    0.0000 C   0  0  0  0  0  0  0  0  0  0  0  0
   -3.7500    3.8971    0.0000 C   0  0  0  0  0  0  0  0  0  0  0  0
   -4.5000    5.1962    0.0000 C   0  0  0  0  0  0  0  0  0  0  0  0
   -4.5000    2.5981    0.0000 C   0  0  0  0  0  0  0  0  0  0  0  0
   -3.7500    1.2990    0.0000 C   0  0  0  0  0  0  0  0  0  0  0  0
    0.7500    1.2990    0.0000 O   0  0  0  0  0  0  0  0  0  0  0  0
    2.2500    1.2990    0.0000 C   0  0  0  0  0  0  0  0  0  0  0  0
    3.0000   -0.0000    0.0000 C   0  0  0  0  0  0  0  0  0  0  0  0
    4.5000   -0.0000    0.0000 C   0  0  0  0  0  0  0  0  0  0  0  0
    5.2500    1.2990    0.0000 C   0  0  0  0  0  0  0  0  0  0  0  0
    6.7500    1.2990    0.0000 C   0  0  0  0  0  0  0  0  0  0  0  0
    4.5000    2.5981    0.0000 C   0  0  0  0  0  0  0  0  0  0  0  0
    3.0000    2.5981    0.0000 C   0  0  0  0  0  0  0  0  0  0  0  0
   -1.5000   -2.5981    0.0000 C   0  0  0  0  0  0  0  0  0  0  0  0
   -2.2500   -3.8971    0.0000 C   0  0  0  0  0  0  0  0  0  0  0  0
  1  2  1  0
  2  3  2  0
  3  4  1  0
  4  5  2  0
  5  6  1  0
  6  7  1  0
  7  8  1  0
  8  9  1  0
  9 10  2  0
 10 11  1  0
 11 12  2  0
 12 13  1  0
 12 14  1  0
 14 15  2  0
  7 16  1  0
 16 17  1  0
 17 18  2  0
 18 19  1  0
 19 20  2  0
 20 21  1  0
 20 22  1  0
 22 23  2  0
  5 24  1  0
 24 25  2  0
 25  2  1  0
 15  9  1  0
 23 17  1  0
M  END
>  <linear_selectivity>  (566) 
40

>  <denticity>  (566) 
1

>  <ligand_class>  (566) 
phosphite

$$$$
P(O-p-Tol)3_120C_toluene
     RDKit          2D

 25 27  0  0  0  0  0  0  0  0999 V2000
   -2.2500   -6.4952    0.0000 C   0  0  0  0  0  0  0  0  0  0  0  0
   -1.5000   -5.1962    0.0000 C   0  0  0  0  0  0  0  0  0  0  0  0
   -0.0000   -5.1962    0.0000 C   0  0  0  0  0  0  0  0  0  0  0  0
    0.7500   -3.8971    0.0000 C   0  0  0  0  0  0  0  0  0  0  0  0
   -0.0000   -2.5981    0.0000 C   0  0  0  0  0  0  0  0  0  0  0  0
    0.7500   -1.2990    0.0000 O   0  0  0  0  0  0  0  0  0  0  0  0
   -0.0000    0.0000    0.0000 P   0  0  0  0  0  0  0  0  0  0  0  0
   -1.5000    0.0000    0.0000 O   0  0  0  0  0  0  0  0  0  0  0  0
   -2.2500    1.2990    0.0000 C   0  0  0  0  0  0  0  0  0  0  0  0
   -1.5000    2.5981    0.0000 C   0  0  0  0  0  0  0  0  0  0  0  0
   -2.2500    3.8971    0.0000 C   0  0  0  0  0  0  0  0  0  0  0  0
   -3.7500    3.8971    0.0000 C   0  0  0  0  0  0  0  0  0  0  0  0
   -4.5000    5.1962    0.0000 C   0  0  0  0  0  0  0  0  0  0  0  0
   -4.5000    2.5981    0.0000 C   0  0  0  0  0  0  0  0  0  0  0  0
   -3.7500    1.2990    0.0000 C   0  0  0  0  0  0  0  0  0  0  0  0
    0.7500    1.2990    0.0000 O   0  0  0  0  0  0  0  0  0  0  0  0
    2.2500    1.2990    0.0000 C   0  0  0  0  0  0  0  0  0  0  0  0
    3.0000   -0.0000    0.0000 C   0  0  0  0  0  0  0  0  0  0  0  0
    4.5000   -0.0000    0.0000 C   0  0  0  0  0  0  0  0  0  0  0  0
    5.2500    1.2990    0.0000 C   0  0  0  0  0  0  0  0  0  0  0  0
    6.7500    1.2990    0.0000 C   0  0  0  0  0  0  0  0  0  0  0  0
    4.5000    2.5981    0.0000 C   0  0  0  0  0  0  0  0  0  0  0  0
    3.0000    2.5981    0.0000 C   0  0  0  0  0  0  0  0  0  0  0  0
   -1.5000   -2.5981    0.0000 C   0  0  0  0  0  0  0  0  0  0  0  0
   -2.2500   -3.8971    0.0000 C   0  0  0  0  0  0  0  0  0  0  0  0
  1  2  1  0
  2  3  2  0
  3  4  1  0
  4  5  2  0
  5  6  1  0
  6  7  1  0
  7  8  1  0
  8  9  1  0
  9 10  2  0
 10 11  1  0
 11 12  2  0
 12 13  1  0
 12 14  1  0
 14 15  2  0
  7 16  1  0
 16 17  1  0
 17 18  2  0
 18 19  1  0
 19 20  2  0
 20 21  1  0
 20 22  1  0
 22 23  2  0
  5 24  1  0
 24 25  2  0
 25  2  1  0
 15  9  1  0
 23 17  1  0
M  END
>  <linear_selectivity>  (567) 
39

>  <denticity>  (567) 
1

>  <ligand_class>  (567) 
phosphite

$$$$
P(O-p-Tol)3_120C_dioxane
     RDKit          2D

 25 27  0  0  0  0  0  0  0  0999 V2000
   -2.2500   -6.4952    0.0000 C   0  0  0  0  0  0  0  0  0  0  0  0
   -1.5000   -5.1962    0.0000 C   0  0  0  0  0  0  0  0  0  0  0  0
   -0.0000   -5.1962    0.0000 C   0  0  0  0  0  0  0  0  0  0  0  0
    0.7500   -3.8971    0.0000 C   0  0  0  0  0  0  0  0  0  0  0  0
   -0.0000   -2.5981    0.0000 C   0  0  0  0  0  0  0  0  0  0  0  0
    0.7500   -1.2990    0.0000 O   0  0  0  0  0  0  0  0  0  0  0  0
   -0.0000    0.0000    0.0000 P   0  0  0  0  0  0  0  0  0  0  0  0
   -1.5000    0.0000    0.0000 O   0  0  0  0  0  0  0  0  0  0  0  0
   -2.2500    1.2990    0.0000 C   0  0  0  0  0  0  0  0  0  0  0  0
   -1.5000    2.5981    0.0000 C   0  0  0  0  0  0  0  0  0  0  0  0
   -2.2500    3.8971    0.0000 C   0  0  0  0  0  0  0  0  0  0  0  0
   -3.7500    3.8971    0.0000 C   0  0  0  0  0  0  0  0  0  0  0  0
   -4.5000    5.1962    0.0000 C   0  0  0  0  0  0  0  0  0  0  0  0
   -4.5000    2.5981    0.0000 C   0  0  0  0  0  0  0  0  0  0  0  0
   -3.7500    1.2990    0.0000 C   0  0  0  0  0  0  0  0  0  0  0  0
    0.7500    1.2990    0.0000 O   0  0  0  0  0  0  0  0  0  0  0  0
    2.2500    1.2990    0.0000 C   0  0  0  0  0  0  0  0  0  0  0  0
    3.0000   -0.0000    0.0000 C   0  0  0  0  0  0  0  0  0  0  0  0
    4.5000   -0.0000    0.0000 C   0  0  0  0  0  0  0  0  0  0  0  0
    5.2500    1.2990    0.0000 C   0  0  0  0  0  0  0  0  0  0  0  0
    6.7500    1.2990    0.0000 C   0  0  0  0  0  0  0  0  0  0  0  0
    4.5000    2.5981    0.0000 C   0  0  0  0  0  0  0  0  0  0  0  0
    3.0000    2.5981    0.0000 C   0  0  0  0  0  0  0  0  0  0  0  0
   -1.5000   -2.5981    0.0000 C   0  0  0  0  0  0  0  0  0  0  0  0
   -2.2500   -3.8971    0.0000 C   0  0  0  0  0  0  0  0  0  0  0  0
  1  2  1  0
  2  3  2  0
  3  4  1  0
  4  5  2  0
  5  6  1  0
  6  7  1  0
  7  8  1  0
  8  9  1  0
  9 10  2  0
 10 11  1  0
 11 12  2  0
 12 13  1  0
 12 14  1  0
 14 15  2  0
  7 16  1  0
 16 17  1  0
 17 18  2  0
 18 19  1  0
 19 20  2  0
 20 21  1  0
 20 22  1  0
 22 23  2  0
  5 24  1  0
 24 25  2  0
 25  2  1  0
 15  9  1  0
 23 17  1  0
M  END
>  <linear_selectivity>  (568) 
37

>  <denticity>  (568) 
1

>  <ligand_class>  (568) 
phosphite

$$$$
P(O-p-Tol)3_120C_benzene
     RDKit          2D

 25 27  0  0  0  0  0  0  0  0999 V2000
   -2.2500   -6.4952    0.0000 C   0  0  0  0  0  0  0  0  0  0  0  0
   -1.5000   -5.1962    0.0000 C   0  0  0  0  0  0  0  0  0  0  0  0
   -0.0000   -5.1962    0.0000 C   0  0  0  0  0  0  0  0  0  0  0  0
    0.7500   -3.8971    0.0000 C   0  0  0  0  0  0  0  0  0  0  0  0
   -0.0000   -2.5981    0.0000 C   0  0  0  0  0  0  0  0  0  0  0  0
    0.7500   -1.2990    0.0000 O   0  0  0  0  0  0  0  0  0  0  0  0
   -0.0000    0.0000    0.0000 P   0  0  0  0  0  0  0  0  0  0  0  0
   -1.5000    0.0000    0.0000 O   0  0  0  0  0  0  0  0  0  0  0  0
   -2.2500    1.2990    0.0000 C   0  0  0  0  0  0  0  0  0  0  0  0
   -1.5000    2.5981    0.0000 C   0  0  0  0  0  0  0  0  0  0  0  0
   -2.2500    3.8971    0.0000 C   0  0  0  0  0  0  0  0  0  0  0  0
   -3.7500    3.8971    0.0000 C   0  0  0  0  0  0  0  0  0  0  0  0
   -4.5000    5.1962    0.0000 C   0  0  0  0  0  0  0  0  0  0  0  0
   -4.5000    2.5981    0.0000 C   0  0  0  0  0  0  0  0  0  0  0  0
   -3.7500    1.2990    0.0000 C   0  0  0  0  0  0  0  0  0  0  0  0
    0.7500    1.2990    0.0000 O   0  0  0  0  0  0  0  0  0  0  0  0
    2.2500    1.2990    0.0000 C   0  0  0  0  0  0  0  0  0  0  0  0
    3.0000   -0.0000    0.0000 C   0  0  0  0  0  0  0  0  0  0  0  0
    4.5000   -0.0000    0.0000 C   0  0  0  0  0  0  0  0  0  0  0  0
    5.2500    1.2990    0.0000 C   0  0  0  0  0  0  0  0  0  0  0  0
    6.7500    1.2990    0.0000 C   0  0  0  0  0  0  0  0  0  0  0  0
    4.5000    2.5981    0.0000 C   0  0  0  0  0  0  0  0  0  0  0  0
    3.0000    2.5981    0.0000 C   0  0  0  0  0  0  0  0  0  0  0  0
   -1.5000   -2.5981    0.0000 C   0  0  0  0  0  0  0  0  0  0  0  0
   -2.2500   -3.8971    0.0000 C   0  0  0  0  0  0  0  0  0  0  0  0
  1  2  1  0
  2  3  2  0
  3  4  1  0
  4  5  2  0
  5  6  1  0
  6  7  1  0
  7  8  1  0
  8  9  1  0
  9 10  2  0
 10 11  1  0
 11 12  2  0
 12 13  1  0
 12 14  1  0
 14 15  2  0
  7 16  1  0
 16 17  1  0
 17 18  2  0
 18 19  1  0
 19 20  2  0
 20 21  1  0
 20 22  1  0
 22 23  2  0
  5 24  1  0
 24 25  2  0
 25  2  1  0
 15  9  1  0
 23 17  1  0
M  END
>  <linear_selectivity>  (569) 
41

>  <denticity>  (569) 
1

>  <ligand_class>  (569) 
phosphite

$$$$
P(O-p-Tol)3_120C_xylene
     RDKit          2D

 25 27  0  0  0  0  0  0  0  0999 V2000
   -2.2500   -6.4952    0.0000 C   0  0  0  0  0  0  0  0  0  0  0  0
   -1.5000   -5.1962    0.0000 C   0  0  0  0  0  0  0  0  0  0  0  0
   -0.0000   -5.1962    0.0000 C   0  0  0  0  0  0  0  0  0  0  0  0
    0.7500   -3.8971    0.0000 C   0  0  0  0  0  0  0  0  0  0  0  0
   -0.0000   -2.5981    0.0000 C   0  0  0  0  0  0  0  0  0  0  0  0
    0.7500   -1.2990    0.0000 O   0  0  0  0  0  0  0  0  0  0  0  0
   -0.0000    0.0000    0.0000 P   0  0  0  0  0  0  0  0  0  0  0  0
   -1.5000    0.0000    0.0000 O   0  0  0  0  0  0  0  0  0  0  0  0
   -2.2500    1.2990    0.0000 C   0  0  0  0  0  0  0  0  0  0  0  0
   -1.5000    2.5981    0.0000 C   0  0  0  0  0  0  0  0  0  0  0  0
   -2.2500    3.8971    0.0000 C   0  0  0  0  0  0  0  0  0  0  0  0
   -3.7500    3.8971    0.0000 C   0  0  0  0  0  0  0  0  0  0  0  0
   -4.5000    5.1962    0.0000 C   0  0  0  0  0  0  0  0  0  0  0  0
   -4.5000    2.5981    0.0000 C   0  0  0  0  0  0  0  0  0  0  0  0
   -3.7500    1.2990    0.0000 C   0  0  0  0  0  0  0  0  0  0  0  0
    0.7500    1.2990    0.0000 O   0  0  0  0  0  0  0  0  0  0  0  0
    2.2500    1.2990    0.0000 C   0  0  0  0  0  0  0  0  0  0  0  0
    3.0000   -0.0000    0.0000 C   0  0  0  0  0  0  0  0  0  0  0  0
    4.5000   -0.0000    0.0000 C   0  0  0  0  0  0  0  0  0  0  0  0
    5.2500    1.2990    0.0000 C   0  0  0  0  0  0  0  0  0  0  0  0
    6.7500    1.2990    0.0000 C   0  0  0  0  0  0  0  0  0  0  0  0
    4.5000    2.5981    0.0000 C   0  0  0  0  0  0  0  0  0  0  0  0
    3.0000    2.5981    0.0000 C   0  0  0  0  0  0  0  0  0  0  0  0
   -1.5000   -2.5981    0.0000 C   0  0  0  0  0  0  0  0  0  0  0  0
   -2.2500   -3.8971    0.0000 C   0  0  0  0  0  0  0  0  0  0  0  0
  1  2  1  0
  2  3  2  0
  3  4  1  0
  4  5  2  0
  5  6  1  0
  6  7  1  0
  7  8  1  0
  8  9  1  0
  9 10  2  0
 10 11  1  0
 11 12  2  0
 12 13  1  0
 12 14  1  0
 14 15  2  0
  7 16  1  0
 16 17  1  0
 17 18  2  0
 18 19  1  0
 19 20  2  0
 20 21  1  0
 20 22  1  0
 22 23  2  0
  5 24  1  0
 24 25  2  0
 25  2  1  0
 15  9  1  0
 23 17  1  0
M  END
>  <linear_selectivity>  (570) 
40

>  <denticity>  (570) 
1

>  <ligand_class>  (570) 
phosphite

$$$$
P(O-p-Tol)3_130C_toluene
     RDKit          2D

 25 27  0  0  0  0  0  0  0  0999 V2000
   -2.2500   -6.4952    0.0000 C   0  0  0  0  0  0  0  0  0  0  0  0
   -1.5000   -5.1962    0.0000 C   0  0  0  0  0  0  0  0  0  0  0  0
   -0.0000   -5.1962    0.0000 C   0  0  0  0  0  0  0  0  0  0  0  0
    0.7500   -3.8971    0.0000 C   0  0  0  0  0  0  0  0  0  0  0  0
   -0.0000   -2.5981    0.0000 C   0  0  0  0  0  0  0  0  0  0  0  0
    0.7500   -1.2990    0.0000 O   0  0  0  0  0  0  0  0  0  0  0  0
   -0.0000    0.0000    0.0000 P   0  0  0  0  0  0  0  0  0  0  0  0
   -1.5000    0.0000    0.0000 O   0  0  0  0  0  0  0  0  0  0  0  0
   -2.2500    1.2990    0.0000 C   0  0  0  0  0  0  0  0  0  0  0  0
   -1.5000    2.5981    0.0000 C   0  0  0  0  0  0  0  0  0  0  0  0
   -2.2500    3.8971    0.0000 C   0  0  0  0  0  0  0  0  0  0  0  0
   -3.7500    3.8971    0.0000 C   0  0  0  0  0  0  0  0  0  0  0  0
   -4.5000    5.1962    0.0000 C   0  0  0  0  0  0  0  0  0  0  0  0
   -4.5000    2.5981    0.0000 C   0  0  0  0  0  0  0  0  0  0  0  0
   -3.7500    1.2990    0.0000 C   0  0  0  0  0  0  0  0  0  0  0  0
    0.7500    1.2990    0.0000 O   0  0  0  0  0  0  0  0  0  0  0  0
    2.2500    1.2990    0.0000 C   0  0  0  0  0  0  0  0  0  0  0  0
    3.0000   -0.0000    0.0000 C   0  0  0  0  0  0  0  0  0  0  0  0
    4.5000   -0.0000    0.0000 C   0  0  0  0  0  0  0  0  0  0  0  0
    5.2500    1.2990    0.0000 C   0  0  0  0  0  0  0  0  0  0  0  0
    6.7500    1.2990    0.0000 C   0  0  0  0  0  0  0  0  0  0  0  0
    4.5000    2.5981    0.0000 C   0  0  0  0  0  0  0  0  0  0  0  0
    3.0000    2.5981    0.0000 C   0  0  0  0  0  0  0  0  0  0  0  0
   -1.5000   -2.5981    0.0000 C   0  0  0  0  0  0  0  0  0  0  0  0
   -2.2500   -3.8971    0.0000 C   0  0  0  0  0  0  0  0  0  0  0  0
  1  2  1  0
  2  3  2  0
  3  4  1  0
  4  5  2  0
  5  6  1  0
  6  7  1  0
  7  8  1  0
  8  9  1  0
  9 10  2  0
 10 11  1  0
 11 12  2  0
 12 13  1  0
 12 14  1  0
 14 15  2  0
  7 16  1  0
 16 17  1  0
 17 18  2  0
 18 19  1  0
 19 20  2  0
 20 21  1  0
 20 22  1  0
 22 23  2  0
  5 24  1  0
 24 25  2  0
 25  2  1  0
 15  9  1  0
 23 17  1  0
M  END
>  <linear_selectivity>  (571) 
38

>  <denticity>  (571) 
1

>  <ligand_class>  (571) 
phosphite

$$$$
P(O-p-Tol)3_130C_THF
     RDKit          2D

 25 27  0  0  0  0  0  0  0  0999 V2000
   -2.2500   -6.4952    0.0000 C   0  0  0  0  0  0  0  0  0  0  0  0
   -1.5000   -5.1962    0.0000 C   0  0  0  0  0  0  0  0  0  0  0  0
   -0.0000   -5.1962    0.0000 C   0  0  0  0  0  0  0  0  0  0  0  0
    0.7500   -3.8971    0.0000 C   0  0  0  0  0  0  0  0  0  0  0  0
   -0.0000   -2.5981    0.0000 C   0  0  0  0  0  0  0  0  0  0  0  0
    0.7500   -1.2990    0.0000 O   0  0  0  0  0  0  0  0  0  0  0  0
   -0.0000    0.0000    0.0000 P   0  0  0  0  0  0  0  0  0  0  0  0
   -1.5000    0.0000    0.0000 O   0  0  0  0  0  0  0  0  0  0  0  0
   -2.2500    1.2990    0.0000 C   0  0  0  0  0  0  0  0  0  0  0  0
   -1.5000    2.5981    0.0000 C   0  0  0  0  0  0  0  0  0  0  0  0
   -2.2500    3.8971    0.0000 C   0  0  0  0  0  0  0  0  0  0  0  0
   -3.7500    3.8971    0.0000 C   0  0  0  0  0  0  0  0  0  0  0  0
   -4.5000    5.1962    0.0000 C   0  0  0  0  0  0  0  0  0  0  0  0
   -4.5000    2.5981    0.0000 C   0  0  0  0  0  0  0  0  0  0  0  0
   -3.7500    1.2990    0.0000 C   0  0  0  0  0  0  0  0  0  0  0  0
    0.7500    1.2990    0.0000 O   0  0  0  0  0  0  0  0  0  0  0  0
    2.2500    1.2990    0.0000 C   0  0  0  0  0  0  0  0  0  0  0  0
    3.0000   -0.0000    0.0000 C   0  0  0  0  0  0  0  0  0  0  0  0
    4.5000   -0.0000    0.0000 C   0  0  0  0  0  0  0  0  0  0  0  0
    5.2500    1.2990    0.0000 C   0  0  0  0  0  0  0  0  0  0  0  0
    6.7500    1.2990    0.0000 C   0  0  0  0  0  0  0  0  0  0  0  0
    4.5000    2.5981    0.0000 C   0  0  0  0  0  0  0  0  0  0  0  0
    3.0000    2.5981    0.0000 C   0  0  0  0  0  0  0  0  0  0  0  0
   -1.5000   -2.5981    0.0000 C   0  0  0  0  0  0  0  0  0  0  0  0
   -2.2500   -3.8971    0.0000 C   0  0  0  0  0  0  0  0  0  0  0  0
  1  2  1  0
  2  3  2  0
  3  4  1  0
  4  5  2  0
  5  6  1  0
  6  7  1  0
  7  8  1  0
  8  9  1  0
  9 10  2  0
 10 11  1  0
 11 12  2  0
 12 13  1  0
 12 14  1  0
 14 15  2  0
  7 16  1  0
 16 17  1  0
 17 18  2  0
 18 19  1  0
 19 20  2  0
 20 21  1  0
 20 22  1  0
 22 23  2  0
  5 24  1  0
 24 25  2  0
 25  2  1  0
 15  9  1  0
 23 17  1  0
M  END
>  <linear_selectivity>  (572) 
34

>  <denticity>  (572) 
1

>  <ligand_class>  (572) 
phosphite

$$$$
P(O-p-Tol)3_130C_hexane
     RDKit          2D

 25 27  0  0  0  0  0  0  0  0999 V2000
   -2.2500   -6.4952    0.0000 C   0  0  0  0  0  0  0  0  0  0  0  0
   -1.5000   -5.1962    0.0000 C   0  0  0  0  0  0  0  0  0  0  0  0
   -0.0000   -5.1962    0.0000 C   0  0  0  0  0  0  0  0  0  0  0  0
    0.7500   -3.8971    0.0000 C   0  0  0  0  0  0  0  0  0  0  0  0
   -0.0000   -2.5981    0.0000 C   0  0  0  0  0  0  0  0  0  0  0  0
    0.7500   -1.2990    0.0000 O   0  0  0  0  0  0  0  0  0  0  0  0
   -0.0000    0.0000    0.0000 P   0  0  0  0  0  0  0  0  0  0  0  0
   -1.5000    0.0000    0.0000 O   0  0  0  0  0  0  0  0  0  0  0  0
   -2.2500    1.2990    0.0000 C   0  0  0  0  0  0  0  0  0  0  0  0
   -1.5000    2.5981    0.0000 C   0  0  0  0  0  0  0  0  0  0  0  0
   -2.2500    3.8971    0.0000 C   0  0  0  0  0  0  0  0  0  0  0  0
   -3.7500    3.8971    0.0000 C   0  0  0  0  0  0  0  0  0  0  0  0
   -4.5000    5.1962    0.0000 C   0  0  0  0  0  0  0  0  0  0  0  0
   -4.5000    2.5981    0.0000 C   0  0  0  0  0  0  0  0  0  0  0  0
   -3.7500    1.2990    0.0000 C   0  0  0  0  0  0  0  0  0  0  0  0
    0.7500    1.2990    0.0000 O   0  0  0  0  0  0  0  0  0  0  0  0
    2.2500    1.2990    0.0000 C   0  0  0  0  0  0  0  0  0  0  0  0
    3.0000   -0.0000    0.0000 C   0  0  0  0  0  0  0  0  0  0  0  0
    4.5000   -0.0000    0.0000 C   0  0  0  0  0  0  0  0  0  0  0  0
    5.2500    1.2990    0.0000 C   0  0  0  0  0  0  0  0  0  0  0  0
    6.7500    1.2990    0.0000 C   0  0  0  0  0  0  0  0  0  0  0  0
    4.5000    2.5981    0.0000 C   0  0  0  0  0  0  0  0  0  0  0  0
    3.0000    2.5981    0.0000 C   0  0  0  0  0  0  0  0  0  0  0  0
   -1.5000   -2.5981    0.0000 C   0  0  0  0  0  0  0  0  0  0  0  0
   -2.2500   -3.8971    0.0000 C   0  0  0  0  0  0  0  0  0  0  0  0
  1  2  1  0
  2  3  2  0
  3  4  1  0
  4  5  2  0
  5  6  1  0
  6  7  1  0
  7  8  1  0
  8  9  1  0
  9 10  2  0
 10 11  1  0
 11 12  2  0
 12 13  1  0
 12 14  1  0
 14 15  2  0
  7 16  1  0
 16 17  1  0
 17 18  2  0
 18 19  1  0
 19 20  2  0
 20 21  1  0
 20 22  1  0
 22 23  2  0
  5 24  1  0
 24 25  2  0
 25  2  1  0
 15  9  1  0
 23 17  1  0
M  END
>  <linear_selectivity>  (573) 
39

>  <denticity>  (573) 
1

>  <ligand_class>  (573) 
phosphite

$$$$
P(O-p-Tol)3_130C_xylene
     RDKit          2D

 25 27  0  0  0  0  0  0  0  0999 V2000
   -2.2500   -6.4952    0.0000 C   0  0  0  0  0  0  0  0  0  0  0  0
   -1.5000   -5.1962    0.0000 C   0  0  0  0  0  0  0  0  0  0  0  0
   -0.0000   -5.1962    0.0000 C   0  0  0  0  0  0  0  0  0  0  0  0
    0.7500   -3.8971    0.0000 C   0  0  0  0  0  0  0  0  0  0  0  0
   -0.0000   -2.5981    0.0000 C   0  0  0  0  0  0  0  0  0  0  0  0
    0.7500   -1.2990    0.0000 O   0  0  0  0  0  0  0  0  0  0  0  0
   -0.0000    0.0000    0.0000 P   0  0  0  0  0  0  0  0  0  0  0  0
   -1.5000    0.0000    0.0000 O   0  0  0  0  0  0  0  0  0  0  0  0
   -2.2500    1.2990    0.0000 C   0  0  0  0  0  0  0  0  0  0  0  0
   -1.5000    2.5981    0.0000 C   0  0  0  0  0  0  0  0  0  0  0  0
   -2.2500    3.8971    0.0000 C   0  0  0  0  0  0  0  0  0  0  0  0
   -3.7500    3.8971    0.0000 C   0  0  0  0  0  0  0  0  0  0  0  0
   -4.5000    5.1962    0.0000 C   0  0  0  0  0  0  0  0  0  0  0  0
   -4.5000    2.5981    0.0000 C   0  0  0  0  0  0  0  0  0  0  0  0
   -3.7500    1.2990    0.0000 C   0  0  0  0  0  0  0  0  0  0  0  0
    0.7500    1.2990    0.0000 O   0  0  0  0  0  0  0  0  0  0  0  0
    2.2500    1.2990    0.0000 C   0  0  0  0  0  0  0  0  0  0  0  0
    3.0000   -0.0000    0.0000 C   0  0  0  0  0  0  0  0  0  0  0  0
    4.5000   -0.0000    0.0000 C   0  0  0  0  0  0  0  0  0  0  0  0
    5.2500    1.2990    0.0000 C   0  0  0  0  0  0  0  0  0  0  0  0
    6.7500    1.2990    0.0000 C   0  0  0  0  0  0  0  0  0  0  0  0
    4.5000    2.5981    0.0000 C   0  0  0  0  0  0  0  0  0  0  0  0
    3.0000    2.5981    0.0000 C   0  0  0  0  0  0  0  0  0  0  0  0
   -1.5000   -2.5981    0.0000 C   0  0  0  0  0  0  0  0  0  0  0  0
   -2.2500   -3.8971    0.0000 C   0  0  0  0  0  0  0  0  0  0  0  0
  1  2  1  0
  2  3  2  0
  3  4  1  0
  4  5  2  0
  5  6  1  0
  6  7  1  0
  7  8  1  0
  8  9  1  0
  9 10  2  0
 10 11  1  0
 11 12  2  0
 12 13  1  0
 12 14  1  0
 14 15  2  0
  7 16  1  0
 16 17  1  0
 17 18  2  0
 18 19  1  0
 19 20  2  0
 20 21  1  0
 20 22  1  0
 22 23  2  0
  5 24  1  0
 24 25  2  0
 25  2  1  0
 15  9  1  0
 23 17  1  0
M  END
>  <linear_selectivity>  (574) 
36

>  <denticity>  (574) 
1

>  <ligand_class>  (574) 
phosphite

$$$$
P(O-2,4-xylyl)3
     RDKit          2D

 28 30  0  0  0  0  0  0  0  0999 V2000
    3.7500   -3.8971    0.0000 C   0  0  0  0  0  0  0  0  0  0  0  0
    2.2500   -3.8971    0.0000 C   0  0  0  0  0  0  0  0  0  0  0  0
    1.5000   -5.1962    0.0000 C   0  0  0  0  0  0  0  0  0  0  0  0
   -0.0000   -5.1962    0.0000 C   0  0  0  0  0  0  0  0  0  0  0  0
   -0.7500   -6.4952    0.0000 C   0  0  0  0  0  0  0  0  0  0  0  0
   -0.7500   -3.8971    0.0000 C   0  0  0  0  0  0  0  0  0  0  0  0
   -0.0000   -2.5981    0.0000 C   0  0  0  0  0  0  0  0  0  0  0  0
   -0.7500   -1.2990    0.0000 O   0  0  0  0  0  0  0  0  0  0  0  0
   -0.0000    0.0000    0.0000 P   0  0  0  0  0  0  0  0  0  0  0  0
   -0.7500    1.2990    0.0000 O   0  0  0  0  0  0  0  0  0  0  0  0
   -2.2500    1.2990    0.0000 C   0  0  0  0  0  0  0  0  0  0  0  0
   -3.0000   -0.0000    0.0000 C   0  0  0  0  0  0  0  0  0  0  0  0
   -4.5000   -0.0000    0.0000 C   0  0  0  0  0  0  0  0  0  0  0  0
   -5.2500   -1.2990    0.0000 C   0  0  0  0  0  0  0  0  0  0  0  0
   -5.2500    1.2990    0.0000 C   0  0  0  0  0  0  0  0  0  0  0  0
   -4.5000    2.5981    0.0000 C   0  0  0  0  0  0  0  0  0  0  0  0
   -5.2500    3.8971    0.0000 C   0  0  0  0  0  0  0  0  0  0  0  0
   -3.0000    2.5981    0.0000 C   0  0  0  0  0  0  0  0  0  0  0  0
    1.5000    0.0000    0.0000 O   0  0  0  0  0  0  0  0  0  0  0  0
    2.2500    1.2990    0.0000 C   0  0  0  0  0  0  0  0  0  0  0  0
    1.5000    2.5981    0.0000 C   0  0  0  0  0  0  0  0  0  0  0  0
    2.2500    3.8971    0.0000 C   0  0  0  0  0  0  0  0  0  0  0  0
    1.5000    5.1962    0.0000 C   0  0  0  0  0  0  0  0  0  0  0  0
    3.7500    3.8971    0.0000 C   0  0  0  0  0  0  0  0  0  0  0  0
    4.5000    2.5981    0.0000 C   0  0  0  0  0  0  0  0  0  0  0  0
    6.0000    2.5981    0.0000 C   0  0  0  0  0  0  0  0  0  0  0  0
    3.7500    1.2990    0.0000 C   0  0  0  0  0  0  0  0  0  0  0  0
    1.5000   -2.5981    0.0000 C   0  0  0  0  0  0  0  0  0  0  0  0
  1  2  1  0
  2  3  2  0
  3  4  1  0
  4  5  1  0
  4  6  2  0
  6  7  1  0
  7  8  1  0
  8  9  1  0
  9 10  1  0
 10 11  1  0
 11 12  2  0
 12 13  1  0
 13 14  1  0
 13 15  2  0
 15 16  1  0
 16 17  1  0
 16 18  2  0
  9 19  1  0
 19 20  1  0
 20 21  2  0
 21 22  1  0
 22 23  1  0
 22 24  2  0
 24 25  1  0
 25 26  1  0
 25 27  2  0
  7 28  2  0
 28  2  1  0
 18 11  1  0
 27 20  1  0
M  END
>  <linear_selectivity>  (575) 
61

>  <denticity>  (575) 
1

>  <ligand_class>  (575) 
phosphite

$$$$
P(O-2,4-xylyl)3_70C_toluene
     RDKit          2D

 28 30  0  0  0  0  0  0  0  0999 V2000
    3.7500   -3.8971    0.0000 C   0  0  0  0  0  0  0  0  0  0  0  0
    2.2500   -3.8971    0.0000 C   0  0  0  0  0  0  0  0  0  0  0  0
    1.5000   -5.1962    0.0000 C   0  0  0  0  0  0  0  0  0  0  0  0
   -0.0000   -5.1962    0.0000 C   0  0  0  0  0  0  0  0  0  0  0  0
   -0.7500   -6.4952    0.0000 C   0  0  0  0  0  0  0  0  0  0  0  0
   -0.7500   -3.8971    0.0000 C   0  0  0  0  0  0  0  0  0  0  0  0
   -0.0000   -2.5981    0.0000 C   0  0  0  0  0  0  0  0  0  0  0  0
   -0.7500   -1.2990    0.0000 O   0  0  0  0  0  0  0  0  0  0  0  0
   -0.0000    0.0000    0.0000 P   0  0  0  0  0  0  0  0  0  0  0  0
   -0.7500    1.2990    0.0000 O   0  0  0  0  0  0  0  0  0  0  0  0
   -2.2500    1.2990    0.0000 C   0  0  0  0  0  0  0  0  0  0  0  0
   -3.0000   -0.0000    0.0000 C   0  0  0  0  0  0  0  0  0  0  0  0
   -4.5000   -0.0000    0.0000 C   0  0  0  0  0  0  0  0  0  0  0  0
   -5.2500   -1.2990    0.0000 C   0  0  0  0  0  0  0  0  0  0  0  0
   -5.2500    1.2990    0.0000 C   0  0  0  0  0  0  0  0  0  0  0  0
   -4.5000    2.5981    0.0000 C   0  0  0  0  0  0  0  0  0  0  0  0
   -5.2500    3.8971    0.0000 C   0  0  0  0  0  0  0  0  0  0  0  0
   -3.0000    2.5981    0.0000 C   0  0  0  0  0  0  0  0  0  0  0  0
    1.5000    0.0000    0.0000 O   0  0  0  0  0  0  0  0  0  0  0  0
    2.2500    1.2990    0.0000 C   0  0  0  0  0  0  0  0  0  0  0  0
    1.5000    2.5981    0.0000 C   0  0  0  0  0  0  0  0  0  0  0  0
    2.2500    3.8971    0.0000 C   0  0  0  0  0  0  0  0  0  0  0  0
    1.5000    5.1962    0.0000 C   0  0  0  0  0  0  0  0  0  0  0  0
    3.7500    3.8971    0.0000 C   0  0  0  0  0  0  0  0  0  0  0  0
    4.5000    2.5981    0.0000 C   0  0  0  0  0  0  0  0  0  0  0  0
    6.0000    2.5981    0.0000 C   0  0  0  0  0  0  0  0  0  0  0  0
    3.7500    1.2990    0.0000 C   0  0  0  0  0  0  0  0  0  0  0  0
    1.5000   -2.5981    0.0000 C   0  0  0  0  0  0  0  0  0  0  0  0
  1  2  1  0
  2  3  2  0
  3  4  1  0
  4  5  1  0
  4  6  2  0
  6  7  1  0
  7  8  1  0
  8  9  1  0
  9 10  1  0
 10 11  1  0
 11 12  2  0
 12 13  1  0
 13 14  1  0
 13 15  2  0
 15 16  1  0
 16 17  1  0
 16 18  2  0
  9 19  1  0
 19 20  1  0
 20 21  2  0
 21 22  1  0
 22 23  1  0
 22 24  2  0
 24 25  1  0
 25 26  1  0
 25 27  2  0
  7 28  2  0
 28  2  1  0
 18 11  1  0
 27 20  1  0
M  END
>  <linear_selectivity>  (576) 
67

>  <denticity>  (576) 
1

>  <ligand_class>  (576) 
phosphite

$$$$
P(O-2,4-xylyl)3_70C_THF
     RDKit          2D

 28 30  0  0  0  0  0  0  0  0999 V2000
    3.7500   -3.8971    0.0000 C   0  0  0  0  0  0  0  0  0  0  0  0
    2.2500   -3.8971    0.0000 C   0  0  0  0  0  0  0  0  0  0  0  0
    1.5000   -5.1962    0.0000 C   0  0  0  0  0  0  0  0  0  0  0  0
   -0.0000   -5.1962    0.0000 C   0  0  0  0  0  0  0  0  0  0  0  0
   -0.7500   -6.4952    0.0000 C   0  0  0  0  0  0  0  0  0  0  0  0
   -0.7500   -3.8971    0.0000 C   0  0  0  0  0  0  0  0  0  0  0  0
   -0.0000   -2.5981    0.0000 C   0  0  0  0  0  0  0  0  0  0  0  0
   -0.7500   -1.2990    0.0000 O   0  0  0  0  0  0  0  0  0  0  0  0
   -0.0000    0.0000    0.0000 P   0  0  0  0  0  0  0  0  0  0  0  0
   -0.7500    1.2990    0.0000 O   0  0  0  0  0  0  0  0  0  0  0  0
   -2.2500    1.2990    0.0000 C   0  0  0  0  0  0  0  0  0  0  0  0
   -3.0000   -0.0000    0.0000 C   0  0  0  0  0  0  0  0  0  0  0  0
   -4.5000   -0.0000    0.0000 C   0  0  0  0  0  0  0  0  0  0  0  0
   -5.2500   -1.2990    0.0000 C   0  0  0  0  0  0  0  0  0  0  0  0
   -5.2500    1.2990    0.0000 C   0  0  0  0  0  0  0  0  0  0  0  0
   -4.5000    2.5981    0.0000 C   0  0  0  0  0  0  0  0  0  0  0  0
   -5.2500    3.8971    0.0000 C   0  0  0  0  0  0  0  0  0  0  0  0
   -3.0000    2.5981    0.0000 C   0  0  0  0  0  0  0  0  0  0  0  0
    1.5000    0.0000    0.0000 O   0  0  0  0  0  0  0  0  0  0  0  0
    2.2500    1.2990    0.0000 C   0  0  0  0  0  0  0  0  0  0  0  0
    1.5000    2.5981    0.0000 C   0  0  0  0  0  0  0  0  0  0  0  0
    2.2500    3.8971    0.0000 C   0  0  0  0  0  0  0  0  0  0  0  0
    1.5000    5.1962    0.0000 C   0  0  0  0  0  0  0  0  0  0  0  0
    3.7500    3.8971    0.0000 C   0  0  0  0  0  0  0  0  0  0  0  0
    4.5000    2.5981    0.0000 C   0  0  0  0  0  0  0  0  0  0  0  0
    6.0000    2.5981    0.0000 C   0  0  0  0  0  0  0  0  0  0  0  0
    3.7500    1.2990    0.0000 C   0  0  0  0  0  0  0  0  0  0  0  0
    1.5000   -2.5981    0.0000 C   0  0  0  0  0  0  0  0  0  0  0  0
  1  2  1  0
  2  3  2  0
  3  4  1  0
  4  5  1  0
  4  6  2  0
  6  7  1  0
  7  8  1  0
  8  9  1  0
  9 10  1  0
 10 11  1  0
 11 12  2  0
 12 13  1  0
 13 14  1  0
 13 15  2  0
 15 16  1  0
 16 17  1  0
 16 18  2  0
  9 19  1  0
 19 20  1  0
 20 21  2  0
 21 22  1  0
 22 23  1  0
 22 24  2  0
 24 25  1  0
 25 26  1  0
 25 27  2  0
  7 28  2  0
 28  2  1  0
 18 11  1  0
 27 20  1  0
M  END
>  <linear_selectivity>  (577) 
62

>  <denticity>  (577) 
1

>  <ligand_class>  (577) 
phosphite

$$$$
P(O-2,4-xylyl)3_70C_hexane
     RDKit          2D

 28 30  0  0  0  0  0  0  0  0999 V2000
    3.7500   -3.8971    0.0000 C   0  0  0  0  0  0  0  0  0  0  0  0
    2.2500   -3.8971    0.0000 C   0  0  0  0  0  0  0  0  0  0  0  0
    1.5000   -5.1962    0.0000 C   0  0  0  0  0  0  0  0  0  0  0  0
   -0.0000   -5.1962    0.0000 C   0  0  0  0  0  0  0  0  0  0  0  0
   -0.7500   -6.4952    0.0000 C   0  0  0  0  0  0  0  0  0  0  0  0
   -0.7500   -3.8971    0.0000 C   0  0  0  0  0  0  0  0  0  0  0  0
   -0.0000   -2.5981    0.0000 C   0  0  0  0  0  0  0  0  0  0  0  0
   -0.7500   -1.2990    0.0000 O   0  0  0  0  0  0  0  0  0  0  0  0
   -0.0000    0.0000    0.0000 P   0  0  0  0  0  0  0  0  0  0  0  0
   -0.7500    1.2990    0.0000 O   0  0  0  0  0  0  0  0  0  0  0  0
   -2.2500    1.2990    0.0000 C   0  0  0  0  0  0  0  0  0  0  0  0
   -3.0000   -0.0000    0.0000 C   0  0  0  0  0  0  0  0  0  0  0  0
   -4.5000   -0.0000    0.0000 C   0  0  0  0  0  0  0  0  0  0  0  0
   -5.2500   -1.2990    0.0000 C   0  0  0  0  0  0  0  0  0  0  0  0
   -5.2500    1.2990    0.0000 C   0  0  0  0  0  0  0  0  0  0  0  0
   -4.5000    2.5981    0.0000 C   0  0  0  0  0  0  0  0  0  0  0  0
   -5.2500    3.8971    0.0000 C   0  0  0  0  0  0  0  0  0  0  0  0
   -3.0000    2.5981    0.0000 C   0  0  0  0  0  0  0  0  0  0  0  0
    1.5000    0.0000    0.0000 O   0  0  0  0  0  0  0  0  0  0  0  0
    2.2500    1.2990    0.0000 C   0  0  0  0  0  0  0  0  0  0  0  0
    1.5000    2.5981    0.0000 C   0  0  0  0  0  0  0  0  0  0  0  0
    2.2500    3.8971    0.0000 C   0  0  0  0  0  0  0  0  0  0  0  0
    1.5000    5.1962    0.0000 C   0  0  0  0  0  0  0  0  0  0  0  0
    3.7500    3.8971    0.0000 C   0  0  0  0  0  0  0  0  0  0  0  0
    4.5000    2.5981    0.0000 C   0  0  0  0  0  0  0  0  0  0  0  0
    6.0000    2.5981    0.0000 C   0  0  0  0  0  0  0  0  0  0  0  0
    3.7500    1.2990    0.0000 C   0  0  0  0  0  0  0  0  0  0  0  0
    1.5000   -2.5981    0.0000 C   0  0  0  0  0  0  0  0  0  0  0  0
  1  2  1  0
  2  3  2  0
  3  4  1  0
  4  5  1  0
  4  6  2  0
  6  7  1  0
  7  8  1  0
  8  9  1  0
  9 10  1  0
 10 11  1  0
 11 12  2  0
 12 13  1  0
 13 14  1  0
 13 15  2  0
 15 16  1  0
 16 17  1  0
 16 18  2  0
  9 19  1  0
 19 20  1  0
 20 21  2  0
 21 22  1  0
 22 23  1  0
 22 24  2  0
 24 25  1  0
 25 26  1  0
 25 27  2  0
  7 28  2  0
 28  2  1  0
 18 11  1  0
 27 20  1  0
M  END
>  <linear_selectivity>  (578) 
72

>  <denticity>  (578) 
1

>  <ligand_class>  (578) 
phosphite

$$$$
P(O-2,4-xylyl)3_70C_benzene
     RDKit          2D

 28 30  0  0  0  0  0  0  0  0999 V2000
    3.7500   -3.8971    0.0000 C   0  0  0  0  0  0  0  0  0  0  0  0
    2.2500   -3.8971    0.0000 C   0  0  0  0  0  0  0  0  0  0  0  0
    1.5000   -5.1962    0.0000 C   0  0  0  0  0  0  0  0  0  0  0  0
   -0.0000   -5.1962    0.0000 C   0  0  0  0  0  0  0  0  0  0  0  0
   -0.7500   -6.4952    0.0000 C   0  0  0  0  0  0  0  0  0  0  0  0
   -0.7500   -3.8971    0.0000 C   0  0  0  0  0  0  0  0  0  0  0  0
   -0.0000   -2.5981    0.0000 C   0  0  0  0  0  0  0  0  0  0  0  0
   -0.7500   -1.2990    0.0000 O   0  0  0  0  0  0  0  0  0  0  0  0
   -0.0000    0.0000    0.0000 P   0  0  0  0  0  0  0  0  0  0  0  0
   -0.7500    1.2990    0.0000 O   0  0  0  0  0  0  0  0  0  0  0  0
   -2.2500    1.2990    0.0000 C   0  0  0  0  0  0  0  0  0  0  0  0
   -3.0000   -0.0000    0.0000 C   0  0  0  0  0  0  0  0  0  0  0  0
   -4.5000   -0.0000    0.0000 C   0  0  0  0  0  0  0  0  0  0  0  0
   -5.2500   -1.2990    0.0000 C   0  0  0  0  0  0  0  0  0  0  0  0
   -5.2500    1.2990    0.0000 C   0  0  0  0  0  0  0  0  0  0  0  0
   -4.5000    2.5981    0.0000 C   0  0  0  0  0  0  0  0  0  0  0  0
   -5.2500    3.8971    0.0000 C   0  0  0  0  0  0  0  0  0  0  0  0
   -3.0000    2.5981    0.0000 C   0  0  0  0  0  0  0  0  0  0  0  0
    1.5000    0.0000    0.0000 O   0  0  0  0  0  0  0  0  0  0  0  0
    2.2500    1.2990    0.0000 C   0  0  0  0  0  0  0  0  0  0  0  0
    1.5000    2.5981    0.0000 C   0  0  0  0  0  0  0  0  0  0  0  0
    2.2500    3.8971    0.0000 C   0  0  0  0  0  0  0  0  0  0  0  0
    1.5000    5.1962    0.0000 C   0  0  0  0  0  0  0  0  0  0  0  0
    3.7500    3.8971    0.0000 C   0  0  0  0  0  0  0  0  0  0  0  0
    4.5000    2.5981    0.0000 C   0  0  0  0  0  0  0  0  0  0  0  0
    6.0000    2.5981    0.0000 C   0  0  0  0  0  0  0  0  0  0  0  0
    3.7500    1.2990    0.0000 C   0  0  0  0  0  0  0  0  0  0  0  0
    1.5000   -2.5981    0.0000 C   0  0  0  0  0  0  0  0  0  0  0  0
  1  2  1  0
  2  3  2  0
  3  4  1  0
  4  5  1  0
  4  6  2  0
  6  7  1  0
  7  8  1  0
  8  9  1  0
  9 10  1  0
 10 11  1  0
 11 12  2  0
 12 13  1  0
 13 14  1  0
 13 15  2  0
 15 16  1  0
 16 17  1  0
 16 18  2  0
  9 19  1  0
 19 20  1  0
 20 21  2  0
 21 22  1  0
 22 23  1  0
 22 24  2  0
 24 25  1  0
 25 26  1  0
 25 27  2  0
  7 28  2  0
 28  2  1  0
 18 11  1  0
 27 20  1  0
M  END
>  <linear_selectivity>  (579) 
69

>  <denticity>  (579) 
1

>  <ligand_class>  (579) 
phosphite

$$$$
P(O-2,4-xylyl)3_70C_xylene
     RDKit          2D

 28 30  0  0  0  0  0  0  0  0999 V2000
    3.7500   -3.8971    0.0000 C   0  0  0  0  0  0  0  0  0  0  0  0
    2.2500   -3.8971    0.0000 C   0  0  0  0  0  0  0  0  0  0  0  0
    1.5000   -5.1962    0.0000 C   0  0  0  0  0  0  0  0  0  0  0  0
   -0.0000   -5.1962    0.0000 C   0  0  0  0  0  0  0  0  0  0  0  0
   -0.7500   -6.4952    0.0000 C   0  0  0  0  0  0  0  0  0  0  0  0
   -0.7500   -3.8971    0.0000 C   0  0  0  0  0  0  0  0  0  0  0  0
   -0.0000   -2.5981    0.0000 C   0  0  0  0  0  0  0  0  0  0  0  0
   -0.7500   -1.2990    0.0000 O   0  0  0  0  0  0  0  0  0  0  0  0
   -0.0000    0.0000    0.0000 P   0  0  0  0  0  0  0  0  0  0  0  0
   -0.7500    1.2990    0.0000 O   0  0  0  0  0  0  0  0  0  0  0  0
   -2.2500    1.2990    0.0000 C   0  0  0  0  0  0  0  0  0  0  0  0
   -3.0000   -0.0000    0.0000 C   0  0  0  0  0  0  0  0  0  0  0  0
   -4.5000   -0.0000    0.0000 C   0  0  0  0  0  0  0  0  0  0  0  0
   -5.2500   -1.2990    0.0000 C   0  0  0  0  0  0  0  0  0  0  0  0
   -5.2500    1.2990    0.0000 C   0  0  0  0  0  0  0  0  0  0  0  0
   -4.5000    2.5981    0.0000 C   0  0  0  0  0  0  0  0  0  0  0  0
   -5.2500    3.8971    0.0000 C   0  0  0  0  0  0  0  0  0  0  0  0
   -3.0000    2.5981    0.0000 C   0  0  0  0  0  0  0  0  0  0  0  0
    1.5000    0.0000    0.0000 O   0  0  0  0  0  0  0  0  0  0  0  0
    2.2500    1.2990    0.0000 C   0  0  0  0  0  0  0  0  0  0  0  0
    1.5000    2.5981    0.0000 C   0  0  0  0  0  0  0  0  0  0  0  0
    2.2500    3.8971    0.0000 C   0  0  0  0  0  0  0  0  0  0  0  0
    1.5000    5.1962    0.0000 C   0  0  0  0  0  0  0  0  0  0  0  0
    3.7500    3.8971    0.0000 C   0  0  0  0  0  0  0  0  0  0  0  0
    4.5000    2.5981    0.0000 C   0  0  0  0  0  0  0  0  0  0  0  0
    6.0000    2.5981    0.0000 C   0  0  0  0  0  0  0  0  0  0  0  0
    3.7500    1.2990    0.0000 C   0  0  0  0  0  0  0  0  0  0  0  0
    1.5000   -2.5981    0.0000 C   0  0  0  0  0  0  0  0  0  0  0  0
  1  2  1  0
  2  3  2  0
  3  4  1  0
  4  5  1  0
  4  6  2  0
  6  7  1  0
  7  8  1  0
  8  9  1  0
  9 10  1  0
 10 11  1  0
 11 12  2  0
 12 13  1  0
 13 14  1  0
 13 15  2  0
 15 16  1  0
 16 17  1  0
 16 18  2  0
  9 19  1  0
 19 20  1  0
 20 21  2  0
 21 22  1  0
 22 23  1  0
 22 24  2  0
 24 25  1  0
 25 26  1  0
 25 27  2  0
  7 28  2  0
 28  2  1  0
 18 11  1  0
 27 20  1  0
M  END
>  <linear_selectivity>  (580) 
66

>  <denticity>  (580) 
1

>  <ligand_class>  (580) 
phosphite

$$$$
P(O-2,4-xylyl)3_80C_toluene
     RDKit          2D

 28 30  0  0  0  0  0  0  0  0999 V2000
    3.7500   -3.8971    0.0000 C   0  0  0  0  0  0  0  0  0  0  0  0
    2.2500   -3.8971    0.0000 C   0  0  0  0  0  0  0  0  0  0  0  0
    1.5000   -5.1962    0.0000 C   0  0  0  0  0  0  0  0  0  0  0  0
   -0.0000   -5.1962    0.0000 C   0  0  0  0  0  0  0  0  0  0  0  0
   -0.7500   -6.4952    0.0000 C   0  0  0  0  0  0  0  0  0  0  0  0
   -0.7500   -3.8971    0.0000 C   0  0  0  0  0  0  0  0  0  0  0  0
   -0.0000   -2.5981    0.0000 C   0  0  0  0  0  0  0  0  0  0  0  0
   -0.7500   -1.2990    0.0000 O   0  0  0  0  0  0  0  0  0  0  0  0
   -0.0000    0.0000    0.0000 P   0  0  0  0  0  0  0  0  0  0  0  0
   -0.7500    1.2990    0.0000 O   0  0  0  0  0  0  0  0  0  0  0  0
   -2.2500    1.2990    0.0000 C   0  0  0  0  0  0  0  0  0  0  0  0
   -3.0000   -0.0000    0.0000 C   0  0  0  0  0  0  0  0  0  0  0  0
   -4.5000   -0.0000    0.0000 C   0  0  0  0  0  0  0  0  0  0  0  0
   -5.2500   -1.2990    0.0000 C   0  0  0  0  0  0  0  0  0  0  0  0
   -5.2500    1.2990    0.0000 C   0  0  0  0  0  0  0  0  0  0  0  0
   -4.5000    2.5981    0.0000 C   0  0  0  0  0  0  0  0  0  0  0  0
   -5.2500    3.8971    0.0000 C   0  0  0  0  0  0  0  0  0  0  0  0
   -3.0000    2.5981    0.0000 C   0  0  0  0  0  0  0  0  0  0  0  0
    1.5000    0.0000    0.0000 O   0  0  0  0  0  0  0  0  0  0  0  0
    2.2500    1.2990    0.0000 C   0  0  0  0  0  0  0  0  0  0  0  0
    1.5000    2.5981    0.0000 C   0  0  0  0  0  0  0  0  0  0  0  0
    2.2500    3.8971    0.0000 C   0  0  0  0  0  0  0  0  0  0  0  0
    1.5000    5.1962    0.0000 C   0  0  0  0  0  0  0  0  0  0  0  0
    3.7500    3.8971    0.0000 C   0  0  0  0  0  0  0  0  0  0  0  0
    4.5000    2.5981    0.0000 C   0  0  0  0  0  0  0  0  0  0  0  0
    6.0000    2.5981    0.0000 C   0  0  0  0  0  0  0  0  0  0  0  0
    3.7500    1.2990    0.0000 C   0  0  0  0  0  0  0  0  0  0  0  0
    1.5000   -2.5981    0.0000 C   0  0  0  0  0  0  0  0  0  0  0  0
  1  2  1  0
  2  3  2  0
  3  4  1  0
  4  5  1  0
  4  6  2  0
  6  7  1  0
  7  8  1  0
  8  9  1  0
  9 10  1  0
 10 11  1  0
 11 12  2  0
 12 13  1  0
 13 14  1  0
 13 15  2  0
 15 16  1  0
 16 17  1  0
 16 18  2  0
  9 19  1  0
 19 20  1  0
 20 21  2  0
 21 22  1  0
 22 23  1  0
 22 24  2  0
 24 25  1  0
 25 26  1  0
 25 27  2  0
  7 28  2  0
 28  2  1  0
 18 11  1  0
 27 20  1  0
M  END
>  <linear_selectivity>  (581) 
67

>  <denticity>  (581) 
1

>  <ligand_class>  (581) 
phosphite

$$$$
P(O-2,4-xylyl)3_80C_dioxane
     RDKit          2D

 28 30  0  0  0  0  0  0  0  0999 V2000
    3.7500   -3.8971    0.0000 C   0  0  0  0  0  0  0  0  0  0  0  0
    2.2500   -3.8971    0.0000 C   0  0  0  0  0  0  0  0  0  0  0  0
    1.5000   -5.1962    0.0000 C   0  0  0  0  0  0  0  0  0  0  0  0
   -0.0000   -5.1962    0.0000 C   0  0  0  0  0  0  0  0  0  0  0  0
   -0.7500   -6.4952    0.0000 C   0  0  0  0  0  0  0  0  0  0  0  0
   -0.7500   -3.8971    0.0000 C   0  0  0  0  0  0  0  0  0  0  0  0
   -0.0000   -2.5981    0.0000 C   0  0  0  0  0  0  0  0  0  0  0  0
   -0.7500   -1.2990    0.0000 O   0  0  0  0  0  0  0  0  0  0  0  0
   -0.0000    0.0000    0.0000 P   0  0  0  0  0  0  0  0  0  0  0  0
   -0.7500    1.2990    0.0000 O   0  0  0  0  0  0  0  0  0  0  0  0
   -2.2500    1.2990    0.0000 C   0  0  0  0  0  0  0  0  0  0  0  0
   -3.0000   -0.0000    0.0000 C   0  0  0  0  0  0  0  0  0  0  0  0
   -4.5000   -0.0000    0.0000 C   0  0  0  0  0  0  0  0  0  0  0  0
   -5.2500   -1.2990    0.0000 C   0  0  0  0  0  0  0  0  0  0  0  0
   -5.2500    1.2990    0.0000 C   0  0  0  0  0  0  0  0  0  0  0  0
   -4.5000    2.5981    0.0000 C   0  0  0  0  0  0  0  0  0  0  0  0
   -5.2500    3.8971    0.0000 C   0  0  0  0  0  0  0  0  0  0  0  0
   -3.0000    2.5981    0.0000 C   0  0  0  0  0  0  0  0  0  0  0  0
    1.5000    0.0000    0.0000 O   0  0  0  0  0  0  0  0  0  0  0  0
    2.2500    1.2990    0.0000 C   0  0  0  0  0  0  0  0  0  0  0  0
    1.5000    2.5981    0.0000 C   0  0  0  0  0  0  0  0  0  0  0  0
    2.2500    3.8971    0.0000 C   0  0  0  0  0  0  0  0  0  0  0  0
    1.5000    5.1962    0.0000 C   0  0  0  0  0  0  0  0  0  0  0  0
    3.7500    3.8971    0.0000 C   0  0  0  0  0  0  0  0  0  0  0  0
    4.5000    2.5981    0.0000 C   0  0  0  0  0  0  0  0  0  0  0  0
    6.0000    2.5981    0.0000 C   0  0  0  0  0  0  0  0  0  0  0  0
    3.7500    1.2990    0.0000 C   0  0  0  0  0  0  0  0  0  0  0  0
    1.5000   -2.5981    0.0000 C   0  0  0  0  0  0  0  0  0  0  0  0
  1  2  1  0
  2  3  2  0
  3  4  1  0
  4  5  1  0
  4  6  2  0
  6  7  1  0
  7  8  1  0
  8  9  1  0
  9 10  1  0
 10 11  1  0
 11 12  2  0
 12 13  1  0
 13 14  1  0
 13 15  2  0
 15 16  1  0
 16 17  1  0
 16 18  2  0
  9 19  1  0
 19 20  1  0
 20 21  2  0
 21 22  1  0
 22 23  1  0
 22 24  2  0
 24 25  1  0
 25 26  1  0
 25 27  2  0
  7 28  2  0
 28  2  1  0
 18 11  1  0
 27 20  1  0
M  END
>  <linear_selectivity>  (582) 
60

>  <denticity>  (582) 
1

>  <ligand_class>  (582) 
phosphite

$$$$
P(O-2,4-xylyl)3_80C_hexane
     RDKit          2D

 28 30  0  0  0  0  0  0  0  0999 V2000
    3.7500   -3.8971    0.0000 C   0  0  0  0  0  0  0  0  0  0  0  0
    2.2500   -3.8971    0.0000 C   0  0  0  0  0  0  0  0  0  0  0  0
    1.5000   -5.1962    0.0000 C   0  0  0  0  0  0  0  0  0  0  0  0
   -0.0000   -5.1962    0.0000 C   0  0  0  0  0  0  0  0  0  0  0  0
   -0.7500   -6.4952    0.0000 C   0  0  0  0  0  0  0  0  0  0  0  0
   -0.7500   -3.8971    0.0000 C   0  0  0  0  0  0  0  0  0  0  0  0
   -0.0000   -2.5981    0.0000 C   0  0  0  0  0  0  0  0  0  0  0  0
   -0.7500   -1.2990    0.0000 O   0  0  0  0  0  0  0  0  0  0  0  0
   -0.0000    0.0000    0.0000 P   0  0  0  0  0  0  0  0  0  0  0  0
   -0.7500    1.2990    0.0000 O   0  0  0  0  0  0  0  0  0  0  0  0
   -2.2500    1.2990    0.0000 C   0  0  0  0  0  0  0  0  0  0  0  0
   -3.0000   -0.0000    0.0000 C   0  0  0  0  0  0  0  0  0  0  0  0
   -4.5000   -0.0000    0.0000 C   0  0  0  0  0  0  0  0  0  0  0  0
   -5.2500   -1.2990    0.0000 C   0  0  0  0  0  0  0  0  0  0  0  0
   -5.2500    1.2990    0.0000 C   0  0  0  0  0  0  0  0  0  0  0  0
   -4.5000    2.5981    0.0000 C   0  0  0  0  0  0  0  0  0  0  0  0
   -5.2500    3.8971    0.0000 C   0  0  0  0  0  0  0  0  0  0  0  0
   -3.0000    2.5981    0.0000 C   0  0  0  0  0  0  0  0  0  0  0  0
    1.5000    0.0000    0.0000 O   0  0  0  0  0  0  0  0  0  0  0  0
    2.2500    1.2990    0.0000 C   0  0  0  0  0  0  0  0  0  0  0  0
    1.5000    2.5981    0.0000 C   0  0  0  0  0  0  0  0  0  0  0  0
    2.2500    3.8971    0.0000 C   0  0  0  0  0  0  0  0  0  0  0  0
    1.5000    5.1962    0.0000 C   0  0  0  0  0  0  0  0  0  0  0  0
    3.7500    3.8971    0.0000 C   0  0  0  0  0  0  0  0  0  0  0  0
    4.5000    2.5981    0.0000 C   0  0  0  0  0  0  0  0  0  0  0  0
    6.0000    2.5981    0.0000 C   0  0  0  0  0  0  0  0  0  0  0  0
    3.7500    1.2990    0.0000 C   0  0  0  0  0  0  0  0  0  0  0  0
    1.5000   -2.5981    0.0000 C   0  0  0  0  0  0  0  0  0  0  0  0
  1  2  1  0
  2  3  2  0
  3  4  1  0
  4  5  1  0
  4  6  2  0
  6  7  1  0
  7  8  1  0
  8  9  1  0
  9 10  1  0
 10 11  1  0
 11 12  2  0
 12 13  1  0
 13 14  1  0
 13 15  2  0
 15 16  1  0
 16 17  1  0
 16 18  2  0
  9 19  1  0
 19 20  1  0
 20 21  2  0
 21 22  1  0
 22 23  1  0
 22 24  2  0
 24 25  1  0
 25 26  1  0
 25 27  2  0
  7 28  2  0
 28  2  1  0
 18 11  1  0
 27 20  1  0
M  END
>  <linear_selectivity>  (583) 
65

>  <denticity>  (583) 
1

>  <ligand_class>  (583) 
phosphite

$$$$
P(O-2,4-xylyl)3_80C_benzene
     RDKit          2D

 28 30  0  0  0  0  0  0  0  0999 V2000
    3.7500   -3.8971    0.0000 C   0  0  0  0  0  0  0  0  0  0  0  0
    2.2500   -3.8971    0.0000 C   0  0  0  0  0  0  0  0  0  0  0  0
    1.5000   -5.1962    0.0000 C   0  0  0  0  0  0  0  0  0  0  0  0
   -0.0000   -5.1962    0.0000 C   0  0  0  0  0  0  0  0  0  0  0  0
   -0.7500   -6.4952    0.0000 C   0  0  0  0  0  0  0  0  0  0  0  0
   -0.7500   -3.8971    0.0000 C   0  0  0  0  0  0  0  0  0  0  0  0
   -0.0000   -2.5981    0.0000 C   0  0  0  0  0  0  0  0  0  0  0  0
   -0.7500   -1.2990    0.0000 O   0  0  0  0  0  0  0  0  0  0  0  0
   -0.0000    0.0000    0.0000 P   0  0  0  0  0  0  0  0  0  0  0  0
   -0.7500    1.2990    0.0000 O   0  0  0  0  0  0  0  0  0  0  0  0
   -2.2500    1.2990    0.0000 C   0  0  0  0  0  0  0  0  0  0  0  0
   -3.0000   -0.0000    0.0000 C   0  0  0  0  0  0  0  0  0  0  0  0
   -4.5000   -0.0000    0.0000 C   0  0  0  0  0  0  0  0  0  0  0  0
   -5.2500   -1.2990    0.0000 C   0  0  0  0  0  0  0  0  0  0  0  0
   -5.2500    1.2990    0.0000 C   0  0  0  0  0  0  0  0  0  0  0  0
   -4.5000    2.5981    0.0000 C   0  0  0  0  0  0  0  0  0  0  0  0
   -5.2500    3.8971    0.0000 C   0  0  0  0  0  0  0  0  0  0  0  0
   -3.0000    2.5981    0.0000 C   0  0  0  0  0  0  0  0  0  0  0  0
    1.5000    0.0000    0.0000 O   0  0  0  0  0  0  0  0  0  0  0  0
    2.2500    1.2990    0.0000 C   0  0  0  0  0  0  0  0  0  0  0  0
    1.5000    2.5981    0.0000 C   0  0  0  0  0  0  0  0  0  0  0  0
    2.2500    3.8971    0.0000 C   0  0  0  0  0  0  0  0  0  0  0  0
    1.5000    5.1962    0.0000 C   0  0  0  0  0  0  0  0  0  0  0  0
    3.7500    3.8971    0.0000 C   0  0  0  0  0  0  0  0  0  0  0  0
    4.5000    2.5981    0.0000 C   0  0  0  0  0  0  0  0  0  0  0  0
    6.0000    2.5981    0.0000 C   0  0  0  0  0  0  0  0  0  0  0  0
    3.7500    1.2990    0.0000 C   0  0  0  0  0  0  0  0  0  0  0  0
    1.5000   -2.5981    0.0000 C   0  0  0  0  0  0  0  0  0  0  0  0
  1  2  1  0
  2  3  2  0
  3  4  1  0
  4  5  1  0
  4  6  2  0
  6  7  1  0
  7  8  1  0
  8  9  1  0
  9 10  1  0
 10 11  1  0
 11 12  2  0
 12 13  1  0
 13 14  1  0
 13 15  2  0
 15 16  1  0
 16 17  1  0
 16 18  2  0
  9 19  1  0
 19 20  1  0
 20 21  2  0
 21 22  1  0
 22 23  1  0
 22 24  2  0
 24 25  1  0
 25 26  1  0
 25 27  2  0
  7 28  2  0
 28  2  1  0
 18 11  1  0
 27 20  1  0
M  END
>  <linear_selectivity>  (584) 
66

>  <denticity>  (584) 
1

>  <ligand_class>  (584) 
phosphite

$$$$
P(O-2,4-xylyl)3_90C_toluene
     RDKit          2D

 28 30  0  0  0  0  0  0  0  0999 V2000
    3.7500   -3.8971    0.0000 C   0  0  0  0  0  0  0  0  0  0  0  0
    2.2500   -3.8971    0.0000 C   0  0  0  0  0  0  0  0  0  0  0  0
    1.5000   -5.1962    0.0000 C   0  0  0  0  0  0  0  0  0  0  0  0
   -0.0000   -5.1962    0.0000 C   0  0  0  0  0  0  0  0  0  0  0  0
   -0.7500   -6.4952    0.0000 C   0  0  0  0  0  0  0  0  0  0  0  0
   -0.7500   -3.8971    0.0000 C   0  0  0  0  0  0  0  0  0  0  0  0
   -0.0000   -2.5981    0.0000 C   0  0  0  0  0  0  0  0  0  0  0  0
   -0.7500   -1.2990    0.0000 O   0  0  0  0  0  0  0  0  0  0  0  0
   -0.0000    0.0000    0.0000 P   0  0  0  0  0  0  0  0  0  0  0  0
   -0.7500    1.2990    0.0000 O   0  0  0  0  0  0  0  0  0  0  0  0
   -2.2500    1.2990    0.0000 C   0  0  0  0  0  0  0  0  0  0  0  0
   -3.0000   -0.0000    0.0000 C   0  0  0  0  0  0  0  0  0  0  0  0
   -4.5000   -0.0000    0.0000 C   0  0  0  0  0  0  0  0  0  0  0  0
   -5.2500   -1.2990    0.0000 C   0  0  0  0  0  0  0  0  0  0  0  0
   -5.2500    1.2990    0.0000 C   0  0  0  0  0  0  0  0  0  0  0  0
   -4.5000    2.5981    0.0000 C   0  0  0  0  0  0  0  0  0  0  0  0
   -5.2500    3.8971    0.0000 C   0  0  0  0  0  0  0  0  0  0  0  0
   -3.0000    2.5981    0.0000 C   0  0  0  0  0  0  0  0  0  0  0  0
    1.5000    0.0000    0.0000 O   0  0  0  0  0  0  0  0  0  0  0  0
    2.2500    1.2990    0.0000 C   0  0  0  0  0  0  0  0  0  0  0  0
    1.5000    2.5981    0.0000 C   0  0  0  0  0  0  0  0  0  0  0  0
    2.2500    3.8971    0.0000 C   0  0  0  0  0  0  0  0  0  0  0  0
    1.5000    5.1962    0.0000 C   0  0  0  0  0  0  0  0  0  0  0  0
    3.7500    3.8971    0.0000 C   0  0  0  0  0  0  0  0  0  0  0  0
    4.5000    2.5981    0.0000 C   0  0  0  0  0  0  0  0  0  0  0  0
    6.0000    2.5981    0.0000 C   0  0  0  0  0  0  0  0  0  0  0  0
    3.7500    1.2990    0.0000 C   0  0  0  0  0  0  0  0  0  0  0  0
    1.5000   -2.5981    0.0000 C   0  0  0  0  0  0  0  0  0  0  0  0
  1  2  1  0
  2  3  2  0
  3  4  1  0
  4  5  1  0
  4  6  2  0
  6  7  1  0
  7  8  1  0
  8  9  1  0
  9 10  1  0
 10 11  1  0
 11 12  2  0
 12 13  1  0
 13 14  1  0
 13 15  2  0
 15 16  1  0
 16 17  1  0
 16 18  2  0
  9 19  1  0
 19 20  1  0
 20 21  2  0
 21 22  1  0
 22 23  1  0
 22 24  2  0
 24 25  1  0
 25 26  1  0
 25 27  2  0
  7 28  2  0
 28  2  1  0
 18 11  1  0
 27 20  1  0
M  END
>  <linear_selectivity>  (585) 
64

>  <denticity>  (585) 
1

>  <ligand_class>  (585) 
phosphite

$$$$
P(O-2,4-xylyl)3_90C_THF
     RDKit          2D

 28 30  0  0  0  0  0  0  0  0999 V2000
    3.7500   -3.8971    0.0000 C   0  0  0  0  0  0  0  0  0  0  0  0
    2.2500   -3.8971    0.0000 C   0  0  0  0  0  0  0  0  0  0  0  0
    1.5000   -5.1962    0.0000 C   0  0  0  0  0  0  0  0  0  0  0  0
   -0.0000   -5.1962    0.0000 C   0  0  0  0  0  0  0  0  0  0  0  0
   -0.7500   -6.4952    0.0000 C   0  0  0  0  0  0  0  0  0  0  0  0
   -0.7500   -3.8971    0.0000 C   0  0  0  0  0  0  0  0  0  0  0  0
   -0.0000   -2.5981    0.0000 C   0  0  0  0  0  0  0  0  0  0  0  0
   -0.7500   -1.2990    0.0000 O   0  0  0  0  0  0  0  0  0  0  0  0
   -0.0000    0.0000    0.0000 P   0  0  0  0  0  0  0  0  0  0  0  0
   -0.7500    1.2990    0.0000 O   0  0  0  0  0  0  0  0  0  0  0  0
   -2.2500    1.2990    0.0000 C   0  0  0  0  0  0  0  0  0  0  0  0
   -3.0000   -0.0000    0.0000 C   0  0  0  0  0  0  0  0  0  0  0  0
   -4.5000   -0.0000    0.0000 C   0  0  0  0  0  0  0  0  0  0  0  0
   -5.2500   -1.2990    0.0000 C   0  0  0  0  0  0  0  0  0  0  0  0
   -5.2500    1.2990    0.0000 C   0  0  0  0  0  0  0  0  0  0  0  0
   -4.5000    2.5981    0.0000 C   0  0  0  0  0  0  0  0  0  0  0  0
   -5.2500    3.8971    0.0000 C   0  0  0  0  0  0  0  0  0  0  0  0
   -3.0000    2.5981    0.0000 C   0  0  0  0  0  0  0  0  0  0  0  0
    1.5000    0.0000    0.0000 O   0  0  0  0  0  0  0  0  0  0  0  0
    2.2500    1.2990    0.0000 C   0  0  0  0  0  0  0  0  0  0  0  0
    1.5000    2.5981    0.0000 C   0  0  0  0  0  0  0  0  0  0  0  0
    2.2500    3.8971    0.0000 C   0  0  0  0  0  0  0  0  0  0  0  0
    1.5000    5.1962    0.0000 C   0  0  0  0  0  0  0  0  0  0  0  0
    3.7500    3.8971    0.0000 C   0  0  0  0  0  0  0  0  0  0  0  0
    4.5000    2.5981    0.0000 C   0  0  0  0  0  0  0  0  0  0  0  0
    6.0000    2.5981    0.0000 C   0  0  0  0  0  0  0  0  0  0  0  0
    3.7500    1.2990    0.0000 C   0  0  0  0  0  0  0  0  0  0  0  0
    1.5000   -2.5981    0.0000 C   0  0  0  0  0  0  0  0  0  0  0  0
  1  2  1  0
  2  3  2  0
  3  4  1  0
  4  5  1  0
  4  6  2  0
  6  7  1  0
  7  8  1  0
  8  9  1  0
  9 10  1  0
 10 11  1  0
 11 12  2  0
 12 13  1  0
 13 14  1  0
 13 15  2  0
 15 16  1  0
 16 17  1  0
 16 18  2  0
  9 19  1  0
 19 20  1  0
 20 21  2  0
 21 22  1  0
 22 23  1  0
 22 24  2  0
 24 25  1  0
 25 26  1  0
 25 27  2  0
  7 28  2  0
 28  2  1  0
 18 11  1  0
 27 20  1  0
M  END
>  <linear_selectivity>  (586) 
56

>  <denticity>  (586) 
1

>  <ligand_class>  (586) 
phosphite

$$$$
P(O-2,4-xylyl)3_90C_dioxane
     RDKit          2D

 28 30  0  0  0  0  0  0  0  0999 V2000
    3.7500   -3.8971    0.0000 C   0  0  0  0  0  0  0  0  0  0  0  0
    2.2500   -3.8971    0.0000 C   0  0  0  0  0  0  0  0  0  0  0  0
    1.5000   -5.1962    0.0000 C   0  0  0  0  0  0  0  0  0  0  0  0
   -0.0000   -5.1962    0.0000 C   0  0  0  0  0  0  0  0  0  0  0  0
   -0.7500   -6.4952    0.0000 C   0  0  0  0  0  0  0  0  0  0  0  0
   -0.7500   -3.8971    0.0000 C   0  0  0  0  0  0  0  0  0  0  0  0
   -0.0000   -2.5981    0.0000 C   0  0  0  0  0  0  0  0  0  0  0  0
   -0.7500   -1.2990    0.0000 O   0  0  0  0  0  0  0  0  0  0  0  0
   -0.0000    0.0000    0.0000 P   0  0  0  0  0  0  0  0  0  0  0  0
   -0.7500    1.2990    0.0000 O   0  0  0  0  0  0  0  0  0  0  0  0
   -2.2500    1.2990    0.0000 C   0  0  0  0  0  0  0  0  0  0  0  0
   -3.0000   -0.0000    0.0000 C   0  0  0  0  0  0  0  0  0  0  0  0
   -4.5000   -0.0000    0.0000 C   0  0  0  0  0  0  0  0  0  0  0  0
   -5.2500   -1.2990    0.0000 C   0  0  0  0  0  0  0  0  0  0  0  0
   -5.2500    1.2990    0.0000 C   0  0  0  0  0  0  0  0  0  0  0  0
   -4.5000    2.5981    0.0000 C   0  0  0  0  0  0  0  0  0  0  0  0
   -5.2500    3.8971    0.0000 C   0  0  0  0  0  0  0  0  0  0  0  0
   -3.0000    2.5981    0.0000 C   0  0  0  0  0  0  0  0  0  0  0  0
    1.5000    0.0000    0.0000 O   0  0  0  0  0  0  0  0  0  0  0  0
    2.2500    1.2990    0.0000 C   0  0  0  0  0  0  0  0  0  0  0  0
    1.5000    2.5981    0.0000 C   0  0  0  0  0  0  0  0  0  0  0  0
    2.2500    3.8971    0.0000 C   0  0  0  0  0  0  0  0  0  0  0  0
    1.5000    5.1962    0.0000 C   0  0  0  0  0  0  0  0  0  0  0  0
    3.7500    3.8971    0.0000 C   0  0  0  0  0  0  0  0  0  0  0  0
    4.5000    2.5981    0.0000 C   0  0  0  0  0  0  0  0  0  0  0  0
    6.0000    2.5981    0.0000 C   0  0  0  0  0  0  0  0  0  0  0  0
    3.7500    1.2990    0.0000 C   0  0  0  0  0  0  0  0  0  0  0  0
    1.5000   -2.5981    0.0000 C   0  0  0  0  0  0  0  0  0  0  0  0
  1  2  1  0
  2  3  2  0
  3  4  1  0
  4  5  1  0
  4  6  2  0
  6  7  1  0
  7  8  1  0
  8  9  1  0
  9 10  1  0
 10 11  1  0
 11 12  2  0
 12 13  1  0
 13 14  1  0
 13 15  2  0
 15 16  1  0
 16 17  1  0
 16 18  2  0
  9 19  1  0
 19 20  1  0
 20 21  2  0
 21 22  1  0
 22 23  1  0
 22 24  2  0
 24 25  1  0
 25 26  1  0
 25 27  2  0
  7 28  2  0
 28  2  1  0
 18 11  1  0
 27 20  1  0
M  END
>  <linear_selectivity>  (587) 
62

>  <denticity>  (587) 
1

>  <ligand_class>  (587) 
phosphite

$$$$
P(O-2,4-xylyl)3_90C_hexane
     RDKit          2D

 28 30  0  0  0  0  0  0  0  0999 V2000
    3.7500   -3.8971    0.0000 C   0  0  0  0  0  0  0  0  0  0  0  0
    2.2500   -3.8971    0.0000 C   0  0  0  0  0  0  0  0  0  0  0  0
    1.5000   -5.1962    0.0000 C   0  0  0  0  0  0  0  0  0  0  0  0
   -0.0000   -5.1962    0.0000 C   0  0  0  0  0  0  0  0  0  0  0  0
   -0.7500   -6.4952    0.0000 C   0  0  0  0  0  0  0  0  0  0  0  0
   -0.7500   -3.8971    0.0000 C   0  0  0  0  0  0  0  0  0  0  0  0
   -0.0000   -2.5981    0.0000 C   0  0  0  0  0  0  0  0  0  0  0  0
   -0.7500   -1.2990    0.0000 O   0  0  0  0  0  0  0  0  0  0  0  0
   -0.0000    0.0000    0.0000 P   0  0  0  0  0  0  0  0  0  0  0  0
   -0.7500    1.2990    0.0000 O   0  0  0  0  0  0  0  0  0  0  0  0
   -2.2500    1.2990    0.0000 C   0  0  0  0  0  0  0  0  0  0  0  0
   -3.0000   -0.0000    0.0000 C   0  0  0  0  0  0  0  0  0  0  0  0
   -4.5000   -0.0000    0.0000 C   0  0  0  0  0  0  0  0  0  0  0  0
   -5.2500   -1.2990    0.0000 C   0  0  0  0  0  0  0  0  0  0  0  0
   -5.2500    1.2990    0.0000 C   0  0  0  0  0  0  0  0  0  0  0  0
   -4.5000    2.5981    0.0000 C   0  0  0  0  0  0  0  0  0  0  0  0
   -5.2500    3.8971    0.0000 C   0  0  0  0  0  0  0  0  0  0  0  0
   -3.0000    2.5981    0.0000 C   0  0  0  0  0  0  0  0  0  0  0  0
    1.5000    0.0000    0.0000 O   0  0  0  0  0  0  0  0  0  0  0  0
    2.2500    1.2990    0.0000 C   0  0  0  0  0  0  0  0  0  0  0  0
    1.5000    2.5981    0.0000 C   0  0  0  0  0  0  0  0  0  0  0  0
    2.2500    3.8971    0.0000 C   0  0  0  0  0  0  0  0  0  0  0  0
    1.5000    5.1962    0.0000 C   0  0  0  0  0  0  0  0  0  0  0  0
    3.7500    3.8971    0.0000 C   0  0  0  0  0  0  0  0  0  0  0  0
    4.5000    2.5981    0.0000 C   0  0  0  0  0  0  0  0  0  0  0  0
    6.0000    2.5981    0.0000 C   0  0  0  0  0  0  0  0  0  0  0  0
    3.7500    1.2990    0.0000 C   0  0  0  0  0  0  0  0  0  0  0  0
    1.5000   -2.5981    0.0000 C   0  0  0  0  0  0  0  0  0  0  0  0
  1  2  1  0
  2  3  2  0
  3  4  1  0
  4  5  1  0
  4  6  2  0
  6  7  1  0
  7  8  1  0
  8  9  1  0
  9 10  1  0
 10 11  1  0
 11 12  2  0
 12 13  1  0
 13 14  1  0
 13 15  2  0
 15 16  1  0
 16 17  1  0
 16 18  2  0
  9 19  1  0
 19 20  1  0
 20 21  2  0
 21 22  1  0
 22 23  1  0
 22 24  2  0
 24 25  1  0
 25 26  1  0
 25 27  2  0
  7 28  2  0
 28  2  1  0
 18 11  1  0
 27 20  1  0
M  END
>  <linear_selectivity>  (588) 
65

>  <denticity>  (588) 
1

>  <ligand_class>  (588) 
phosphite

$$$$
P(O-2,4-xylyl)3_90C_benzene
     RDKit          2D

 28 30  0  0  0  0  0  0  0  0999 V2000
    3.7500   -3.8971    0.0000 C   0  0  0  0  0  0  0  0  0  0  0  0
    2.2500   -3.8971    0.0000 C   0  0  0  0  0  0  0  0  0  0  0  0
    1.5000   -5.1962    0.0000 C   0  0  0  0  0  0  0  0  0  0  0  0
   -0.0000   -5.1962    0.0000 C   0  0  0  0  0  0  0  0  0  0  0  0
   -0.7500   -6.4952    0.0000 C   0  0  0  0  0  0  0  0  0  0  0  0
   -0.7500   -3.8971    0.0000 C   0  0  0  0  0  0  0  0  0  0  0  0
   -0.0000   -2.5981    0.0000 C   0  0  0  0  0  0  0  0  0  0  0  0
   -0.7500   -1.2990    0.0000 O   0  0  0  0  0  0  0  0  0  0  0  0
   -0.0000    0.0000    0.0000 P   0  0  0  0  0  0  0  0  0  0  0  0
   -0.7500    1.2990    0.0000 O   0  0  0  0  0  0  0  0  0  0  0  0
   -2.2500    1.2990    0.0000 C   0  0  0  0  0  0  0  0  0  0  0  0
   -3.0000   -0.0000    0.0000 C   0  0  0  0  0  0  0  0  0  0  0  0
   -4.5000   -0.0000    0.0000 C   0  0  0  0  0  0  0  0  0  0  0  0
   -5.2500   -1.2990    0.0000 C   0  0  0  0  0  0  0  0  0  0  0  0
   -5.2500    1.2990    0.0000 C   0  0  0  0  0  0  0  0  0  0  0  0
   -4.5000    2.5981    0.0000 C   0  0  0  0  0  0  0  0  0  0  0  0
   -5.2500    3.8971    0.0000 C   0  0  0  0  0  0  0  0  0  0  0  0
   -3.0000    2.5981    0.0000 C   0  0  0  0  0  0  0  0  0  0  0  0
    1.5000    0.0000    0.0000 O   0  0  0  0  0  0  0  0  0  0  0  0
    2.2500    1.2990    0.0000 C   0  0  0  0  0  0  0  0  0  0  0  0
    1.5000    2.5981    0.0000 C   0  0  0  0  0  0  0  0  0  0  0  0
    2.2500    3.8971    0.0000 C   0  0  0  0  0  0  0  0  0  0  0  0
    1.5000    5.1962    0.0000 C   0  0  0  0  0  0  0  0  0  0  0  0
    3.7500    3.8971    0.0000 C   0  0  0  0  0  0  0  0  0  0  0  0
    4.5000    2.5981    0.0000 C   0  0  0  0  0  0  0  0  0  0  0  0
    6.0000    2.5981    0.0000 C   0  0  0  0  0  0  0  0  0  0  0  0
    3.7500    1.2990    0.0000 C   0  0  0  0  0  0  0  0  0  0  0  0
    1.5000   -2.5981    0.0000 C   0  0  0  0  0  0  0  0  0  0  0  0
  1  2  1  0
  2  3  2  0
  3  4  1  0
  4  5  1  0
  4  6  2  0
  6  7  1  0
  7  8  1  0
  8  9  1  0
  9 10  1  0
 10 11  1  0
 11 12  2  0
 12 13  1  0
 13 14  1  0
 13 15  2  0
 15 16  1  0
 16 17  1  0
 16 18  2  0
  9 19  1  0
 19 20  1  0
 20 21  2  0
 21 22  1  0
 22 23  1  0
 22 24  2  0
 24 25  1  0
 25 26  1  0
 25 27  2  0
  7 28  2  0
 28  2  1  0
 18 11  1  0
 27 20  1  0
M  END
>  <linear_selectivity>  (589) 
65

>  <denticity>  (589) 
1

>  <ligand_class>  (589) 
phosphite

$$$$
P(O-2,4-xylyl)3_100C_THF
     RDKit          2D

 28 30  0  0  0  0  0  0  0  0999 V2000
    3.7500   -3.8971    0.0000 C   0  0  0  0  0  0  0  0  0  0  0  0
    2.2500   -3.8971    0.0000 C   0  0  0  0  0  0  0  0  0  0  0  0
    1.5000   -5.1962    0.0000 C   0  0  0  0  0  0  0  0  0  0  0  0
   -0.0000   -5.1962    0.0000 C   0  0  0  0  0  0  0  0  0  0  0  0
   -0.7500   -6.4952    0.0000 C   0  0  0  0  0  0  0  0  0  0  0  0
   -0.7500   -3.8971    0.0000 C   0  0  0  0  0  0  0  0  0  0  0  0
   -0.0000   -2.5981    0.0000 C   0  0  0  0  0  0  0  0  0  0  0  0
   -0.7500   -1.2990    0.0000 O   0  0  0  0  0  0  0  0  0  0  0  0
   -0.0000    0.0000    0.0000 P   0  0  0  0  0  0  0  0  0  0  0  0
   -0.7500    1.2990    0.0000 O   0  0  0  0  0  0  0  0  0  0  0  0
   -2.2500    1.2990    0.0000 C   0  0  0  0  0  0  0  0  0  0  0  0
   -3.0000   -0.0000    0.0000 C   0  0  0  0  0  0  0  0  0  0  0  0
   -4.5000   -0.0000    0.0000 C   0  0  0  0  0  0  0  0  0  0  0  0
   -5.2500   -1.2990    0.0000 C   0  0  0  0  0  0  0  0  0  0  0  0
   -5.2500    1.2990    0.0000 C   0  0  0  0  0  0  0  0  0  0  0  0
   -4.5000    2.5981    0.0000 C   0  0  0  0  0  0  0  0  0  0  0  0
   -5.2500    3.8971    0.0000 C   0  0  0  0  0  0  0  0  0  0  0  0
   -3.0000    2.5981    0.0000 C   0  0  0  0  0  0  0  0  0  0  0  0
    1.5000    0.0000    0.0000 O   0  0  0  0  0  0  0  0  0  0  0  0
    2.2500    1.2990    0.0000 C   0  0  0  0  0  0  0  0  0  0  0  0
    1.5000    2.5981    0.0000 C   0  0  0  0  0  0  0  0  0  0  0  0
    2.2500    3.8971    0.0000 C   0  0  0  0  0  0  0  0  0  0  0  0
    1.5000    5.1962    0.0000 C   0  0  0  0  0  0  0  0  0  0  0  0
    3.7500    3.8971    0.0000 C   0  0  0  0  0  0  0  0  0  0  0  0
    4.5000    2.5981    0.0000 C   0  0  0  0  0  0  0  0  0  0  0  0
    6.0000    2.5981    0.0000 C   0  0  0  0  0  0  0  0  0  0  0  0
    3.7500    1.2990    0.0000 C   0  0  0  0  0  0  0  0  0  0  0  0
    1.5000   -2.5981    0.0000 C   0  0  0  0  0  0  0  0  0  0  0  0
  1  2  1  0
  2  3  2  0
  3  4  1  0
  4  5  1  0
  4  6  2  0
  6  7  1  0
  7  8  1  0
  8  9  1  0
  9 10  1  0
 10 11  1  0
 11 12  2  0
 12 13  1  0
 13 14  1  0
 13 15  2  0
 15 16  1  0
 16 17  1  0
 16 18  2  0
  9 19  1  0
 19 20  1  0
 20 21  2  0
 21 22  1  0
 22 23  1  0
 22 24  2  0
 24 25  1  0
 25 26  1  0
 25 27  2  0
  7 28  2  0
 28  2  1  0
 18 11  1  0
 27 20  1  0
M  END
>  <linear_selectivity>  (590) 
58

>  <denticity>  (590) 
1

>  <ligand_class>  (590) 
phosphite

$$$$
P(O-2,4-xylyl)3_100C_dioxane
     RDKit          2D

 28 30  0  0  0  0  0  0  0  0999 V2000
    3.7500   -3.8971    0.0000 C   0  0  0  0  0  0  0  0  0  0  0  0
    2.2500   -3.8971    0.0000 C   0  0  0  0  0  0  0  0  0  0  0  0
    1.5000   -5.1962    0.0000 C   0  0  0  0  0  0  0  0  0  0  0  0
   -0.0000   -5.1962    0.0000 C   0  0  0  0  0  0  0  0  0  0  0  0
   -0.7500   -6.4952    0.0000 C   0  0  0  0  0  0  0  0  0  0  0  0
   -0.7500   -3.8971    0.0000 C   0  0  0  0  0  0  0  0  0  0  0  0
   -0.0000   -2.5981    0.0000 C   0  0  0  0  0  0  0  0  0  0  0  0
   -0.7500   -1.2990    0.0000 O   0  0  0  0  0  0  0  0  0  0  0  0
   -0.0000    0.0000    0.0000 P   0  0  0  0  0  0  0  0  0  0  0  0
   -0.7500    1.2990    0.0000 O   0  0  0  0  0  0  0  0  0  0  0  0
   -2.2500    1.2990    0.0000 C   0  0  0  0  0  0  0  0  0  0  0  0
   -3.0000   -0.0000    0.0000 C   0  0  0  0  0  0  0  0  0  0  0  0
   -4.5000   -0.0000    0.0000 C   0  0  0  0  0  0  0  0  0  0  0  0
   -5.2500   -1.2990    0.0000 C   0  0  0  0  0  0  0  0  0  0  0  0
   -5.2500    1.2990    0.0000 C   0  0  0  0  0  0  0  0  0  0  0  0
   -4.5000    2.5981    0.0000 C   0  0  0  0  0  0  0  0  0  0  0  0
   -5.2500    3.8971    0.0000 C   0  0  0  0  0  0  0  0  0  0  0  0
   -3.0000    2.5981    0.0000 C   0  0  0  0  0  0  0  0  0  0  0  0
    1.5000    0.0000    0.0000 O   0  0  0  0  0  0  0  0  0  0  0  0
    2.2500    1.2990    0.0000 C   0  0  0  0  0  0  0  0  0  0  0  0
    1.5000    2.5981    0.0000 C   0  0  0  0  0  0  0  0  0  0  0  0
    2.2500    3.8971    0.0000 C   0  0  0  0  0  0  0  0  0  0  0  0
    1.5000    5.1962    0.0000 C   0  0  0  0  0  0  0  0  0  0  0  0
    3.7500    3.8971    0.0000 C   0  0  0  0  0  0  0  0  0  0  0  0
    4.5000    2.5981    0.0000 C   0  0  0  0  0  0  0  0  0  0  0  0
    6.0000    2.5981    0.0000 C   0  0  0  0  0  0  0  0  0  0  0  0
    3.7500    1.2990    0.0000 C   0  0  0  0  0  0  0  0  0  0  0  0
    1.5000   -2.5981    0.0000 C   0  0  0  0  0  0  0  0  0  0  0  0
  1  2  1  0
  2  3  2  0
  3  4  1  0
  4  5  1  0
  4  6  2  0
  6  7  1  0
  7  8  1  0
  8  9  1  0
  9 10  1  0
 10 11  1  0
 11 12  2  0
 12 13  1  0
 13 14  1  0
 13 15  2  0
 15 16  1  0
 16 17  1  0
 16 18  2  0
  9 19  1  0
 19 20  1  0
 20 21  2  0
 21 22  1  0
 22 23  1  0
 22 24  2  0
 24 25  1  0
 25 26  1  0
 25 27  2  0
  7 28  2  0
 28  2  1  0
 18 11  1  0
 27 20  1  0
M  END
>  <linear_selectivity>  (591) 
60

>  <denticity>  (591) 
1

>  <ligand_class>  (591) 
phosphite

$$$$
P(O-2,4-xylyl)3_100C_hexane
     RDKit          2D

 28 30  0  0  0  0  0  0  0  0999 V2000
    3.7500   -3.8971    0.0000 C   0  0  0  0  0  0  0  0  0  0  0  0
    2.2500   -3.8971    0.0000 C   0  0  0  0  0  0  0  0  0  0  0  0
    1.5000   -5.1962    0.0000 C   0  0  0  0  0  0  0  0  0  0  0  0
   -0.0000   -5.1962    0.0000 C   0  0  0  0  0  0  0  0  0  0  0  0
   -0.7500   -6.4952    0.0000 C   0  0  0  0  0  0  0  0  0  0  0  0
   -0.7500   -3.8971    0.0000 C   0  0  0  0  0  0  0  0  0  0  0  0
   -0.0000   -2.5981    0.0000 C   0  0  0  0  0  0  0  0  0  0  0  0
   -0.7500   -1.2990    0.0000 O   0  0  0  0  0  0  0  0  0  0  0  0
   -0.0000    0.0000    0.0000 P   0  0  0  0  0  0  0  0  0  0  0  0
   -0.7500    1.2990    0.0000 O   0  0  0  0  0  0  0  0  0  0  0  0
   -2.2500    1.2990    0.0000 C   0  0  0  0  0  0  0  0  0  0  0  0
   -3.0000   -0.0000    0.0000 C   0  0  0  0  0  0  0  0  0  0  0  0
   -4.5000   -0.0000    0.0000 C   0  0  0  0  0  0  0  0  0  0  0  0
   -5.2500   -1.2990    0.0000 C   0  0  0  0  0  0  0  0  0  0  0  0
   -5.2500    1.2990    0.0000 C   0  0  0  0  0  0  0  0  0  0  0  0
   -4.5000    2.5981    0.0000 C   0  0  0  0  0  0  0  0  0  0  0  0
   -5.2500    3.8971    0.0000 C   0  0  0  0  0  0  0  0  0  0  0  0
   -3.0000    2.5981    0.0000 C   0  0  0  0  0  0  0  0  0  0  0  0
    1.5000    0.0000    0.0000 O   0  0  0  0  0  0  0  0  0  0  0  0
    2.2500    1.2990    0.0000 C   0  0  0  0  0  0  0  0  0  0  0  0
    1.5000    2.5981    0.0000 C   0  0  0  0  0  0  0  0  0  0  0  0
    2.2500    3.8971    0.0000 C   0  0  0  0  0  0  0  0  0  0  0  0
    1.5000    5.1962    0.0000 C   0  0  0  0  0  0  0  0  0  0  0  0
    3.7500    3.8971    0.0000 C   0  0  0  0  0  0  0  0  0  0  0  0
    4.5000    2.5981    0.0000 C   0  0  0  0  0  0  0  0  0  0  0  0
    6.0000    2.5981    0.0000 C   0  0  0  0  0  0  0  0  0  0  0  0
    3.7500    1.2990    0.0000 C   0  0  0  0  0  0  0  0  0  0  0  0
    1.5000   -2.5981    0.0000 C   0  0  0  0  0  0  0  0  0  0  0  0
  1  2  1  0
  2  3  2  0
  3  4  1  0
  4  5  1  0
  4  6  2  0
  6  7  1  0
  7  8  1  0
  8  9  1  0
  9 10  1  0
 10 11  1  0
 11 12  2  0
 12 13  1  0
 13 14  1  0
 13 15  2  0
 15 16  1  0
 16 17  1  0
 16 18  2  0
  9 19  1  0
 19 20  1  0
 20 21  2  0
 21 22  1  0
 22 23  1  0
 22 24  2  0
 24 25  1  0
 25 26  1  0
 25 27  2  0
  7 28  2  0
 28  2  1  0
 18 11  1  0
 27 20  1  0
M  END
>  <linear_selectivity>  (592) 
64

>  <denticity>  (592) 
1

>  <ligand_class>  (592) 
phosphite

$$$$
P(O-2,4-xylyl)3_100C_benzene
     RDKit          2D

 28 30  0  0  0  0  0  0  0  0999 V2000
    3.7500   -3.8971    0.0000 C   0  0  0  0  0  0  0  0  0  0  0  0
    2.2500   -3.8971    0.0000 C   0  0  0  0  0  0  0  0  0  0  0  0
    1.5000   -5.1962    0.0000 C   0  0  0  0  0  0  0  0  0  0  0  0
   -0.0000   -5.1962    0.0000 C   0  0  0  0  0  0  0  0  0  0  0  0
   -0.7500   -6.4952    0.0000 C   0  0  0  0  0  0  0  0  0  0  0  0
   -0.7500   -3.8971    0.0000 C   0  0  0  0  0  0  0  0  0  0  0  0
   -0.0000   -2.5981    0.0000 C   0  0  0  0  0  0  0  0  0  0  0  0
   -0.7500   -1.2990    0.0000 O   0  0  0  0  0  0  0  0  0  0  0  0
   -0.0000    0.0000    0.0000 P   0  0  0  0  0  0  0  0  0  0  0  0
   -0.7500    1.2990    0.0000 O   0  0  0  0  0  0  0  0  0  0  0  0
   -2.2500    1.2990    0.0000 C   0  0  0  0  0  0  0  0  0  0  0  0
   -3.0000   -0.0000    0.0000 C   0  0  0  0  0  0  0  0  0  0  0  0
   -4.5000   -0.0000    0.0000 C   0  0  0  0  0  0  0  0  0  0  0  0
   -5.2500   -1.2990    0.0000 C   0  0  0  0  0  0  0  0  0  0  0  0
   -5.2500    1.2990    0.0000 C   0  0  0  0  0  0  0  0  0  0  0  0
   -4.5000    2.5981    0.0000 C   0  0  0  0  0  0  0  0  0  0  0  0
   -5.2500    3.8971    0.0000 C   0  0  0  0  0  0  0  0  0  0  0  0
   -3.0000    2.5981    0.0000 C   0  0  0  0  0  0  0  0  0  0  0  0
    1.5000    0.0000    0.0000 O   0  0  0  0  0  0  0  0  0  0  0  0
    2.2500    1.2990    0.0000 C   0  0  0  0  0  0  0  0  0  0  0  0
    1.5000    2.5981    0.0000 C   0  0  0  0  0  0  0  0  0  0  0  0
    2.2500    3.8971    0.0000 C   0  0  0  0  0  0  0  0  0  0  0  0
    1.5000    5.1962    0.0000 C   0  0  0  0  0  0  0  0  0  0  0  0
    3.7500    3.8971    0.0000 C   0  0  0  0  0  0  0  0  0  0  0  0
    4.5000    2.5981    0.0000 C   0  0  0  0  0  0  0  0  0  0  0  0
    6.0000    2.5981    0.0000 C   0  0  0  0  0  0  0  0  0  0  0  0
    3.7500    1.2990    0.0000 C   0  0  0  0  0  0  0  0  0  0  0  0
    1.5000   -2.5981    0.0000 C   0  0  0  0  0  0  0  0  0  0  0  0
  1  2  1  0
  2  3  2  0
  3  4  1  0
  4  5  1  0
  4  6  2  0
  6  7  1  0
  7  8  1  0
  8  9  1  0
  9 10  1  0
 10 11  1  0
 11 12  2  0
 12 13  1  0
 13 14  1  0
 13 15  2  0
 15 16  1  0
 16 17  1  0
 16 18  2  0
  9 19  1  0
 19 20  1  0
 20 21  2  0
 21 22  1  0
 22 23  1  0
 22 24  2  0
 24 25  1  0
 25 26  1  0
 25 27  2  0
  7 28  2  0
 28  2  1  0
 18 11  1  0
 27 20  1  0
M  END
>  <linear_selectivity>  (593) 
61

>  <denticity>  (593) 
1

>  <ligand_class>  (593) 
phosphite

$$$$
P(O-2,4-xylyl)3_100C_xylene
     RDKit          2D

 28 30  0  0  0  0  0  0  0  0999 V2000
    3.7500   -3.8971    0.0000 C   0  0  0  0  0  0  0  0  0  0  0  0
    2.2500   -3.8971    0.0000 C   0  0  0  0  0  0  0  0  0  0  0  0
    1.5000   -5.1962    0.0000 C   0  0  0  0  0  0  0  0  0  0  0  0
   -0.0000   -5.1962    0.0000 C   0  0  0  0  0  0  0  0  0  0  0  0
   -0.7500   -6.4952    0.0000 C   0  0  0  0  0  0  0  0  0  0  0  0
   -0.7500   -3.8971    0.0000 C   0  0  0  0  0  0  0  0  0  0  0  0
   -0.0000   -2.5981    0.0000 C   0  0  0  0  0  0  0  0  0  0  0  0
   -0.7500   -1.2990    0.0000 O   0  0  0  0  0  0  0  0  0  0  0  0
   -0.0000    0.0000    0.0000 P   0  0  0  0  0  0  0  0  0  0  0  0
   -0.7500    1.2990    0.0000 O   0  0  0  0  0  0  0  0  0  0  0  0
   -2.2500    1.2990    0.0000 C   0  0  0  0  0  0  0  0  0  0  0  0
   -3.0000   -0.0000    0.0000 C   0  0  0  0  0  0  0  0  0  0  0  0
   -4.5000   -0.0000    0.0000 C   0  0  0  0  0  0  0  0  0  0  0  0
   -5.2500   -1.2990    0.0000 C   0  0  0  0  0  0  0  0  0  0  0  0
   -5.2500    1.2990    0.0000 C   0  0  0  0  0  0  0  0  0  0  0  0
   -4.5000    2.5981    0.0000 C   0  0  0  0  0  0  0  0  0  0  0  0
   -5.2500    3.8971    0.0000 C   0  0  0  0  0  0  0  0  0  0  0  0
   -3.0000    2.5981    0.0000 C   0  0  0  0  0  0  0  0  0  0  0  0
    1.5000    0.0000    0.0000 O   0  0  0  0  0  0  0  0  0  0  0  0
    2.2500    1.2990    0.0000 C   0  0  0  0  0  0  0  0  0  0  0  0
    1.5000    2.5981    0.0000 C   0  0  0  0  0  0  0  0  0  0  0  0
    2.2500    3.8971    0.0000 C   0  0  0  0  0  0  0  0  0  0  0  0
    1.5000    5.1962    0.0000 C   0  0  0  0  0  0  0  0  0  0  0  0
    3.7500    3.8971    0.0000 C   0  0  0  0  0  0  0  0  0  0  0  0
    4.5000    2.5981    0.0000 C   0  0  0  0  0  0  0  0  0  0  0  0
    6.0000    2.5981    0.0000 C   0  0  0  0  0  0  0  0  0  0  0  0
    3.7500    1.2990    0.0000 C   0  0  0  0  0  0  0  0  0  0  0  0
    1.5000   -2.5981    0.0000 C   0  0  0  0  0  0  0  0  0  0  0  0
  1  2  1  0
  2  3  2  0
  3  4  1  0
  4  5  1  0
  4  6  2  0
  6  7  1  0
  7  8  1  0
  8  9  1  0
  9 10  1  0
 10 11  1  0
 11 12  2  0
 12 13  1  0
 13 14  1  0
 13 15  2  0
 15 16  1  0
 16 17  1  0
 16 18  2  0
  9 19  1  0
 19 20  1  0
 20 21  2  0
 21 22  1  0
 22 23  1  0
 22 24  2  0
 24 25  1  0
 25 26  1  0
 25 27  2  0
  7 28  2  0
 28  2  1  0
 18 11  1  0
 27 20  1  0
M  END
>  <linear_selectivity>  (594) 
68

>  <denticity>  (594) 
1

>  <ligand_class>  (594) 
phosphite

$$$$
P(O-2,4-xylyl)3_110C_toluene
     RDKit          2D

 28 30  0  0  0  0  0  0  0  0999 V2000
    3.7500   -3.8971    0.0000 C   0  0  0  0  0  0  0  0  0  0  0  0
    2.2500   -3.8971    0.0000 C   0  0  0  0  0  0  0  0  0  0  0  0
    1.5000   -5.1962    0.0000 C   0  0  0  0  0  0  0  0  0  0  0  0
   -0.0000   -5.1962    0.0000 C   0  0  0  0  0  0  0  0  0  0  0  0
   -0.7500   -6.4952    0.0000 C   0  0  0  0  0  0  0  0  0  0  0  0
   -0.7500   -3.8971    0.0000 C   0  0  0  0  0  0  0  0  0  0  0  0
   -0.0000   -2.5981    0.0000 C   0  0  0  0  0  0  0  0  0  0  0  0
   -0.7500   -1.2990    0.0000 O   0  0  0  0  0  0  0  0  0  0  0  0
   -0.0000    0.0000    0.0000 P   0  0  0  0  0  0  0  0  0  0  0  0
   -0.7500    1.2990    0.0000 O   0  0  0  0  0  0  0  0  0  0  0  0
   -2.2500    1.2990    0.0000 C   0  0  0  0  0  0  0  0  0  0  0  0
   -3.0000   -0.0000    0.0000 C   0  0  0  0  0  0  0  0  0  0  0  0
   -4.5000   -0.0000    0.0000 C   0  0  0  0  0  0  0  0  0  0  0  0
   -5.2500   -1.2990    0.0000 C   0  0  0  0  0  0  0  0  0  0  0  0
   -5.2500    1.2990    0.0000 C   0  0  0  0  0  0  0  0  0  0  0  0
   -4.5000    2.5981    0.0000 C   0  0  0  0  0  0  0  0  0  0  0  0
   -5.2500    3.8971    0.0000 C   0  0  0  0  0  0  0  0  0  0  0  0
   -3.0000    2.5981    0.0000 C   0  0  0  0  0  0  0  0  0  0  0  0
    1.5000    0.0000    0.0000 O   0  0  0  0  0  0  0  0  0  0  0  0
    2.2500    1.2990    0.0000 C   0  0  0  0  0  0  0  0  0  0  0  0
    1.5000    2.5981    0.0000 C   0  0  0  0  0  0  0  0  0  0  0  0
    2.2500    3.8971    0.0000 C   0  0  0  0  0  0  0  0  0  0  0  0
    1.5000    5.1962    0.0000 C   0  0  0  0  0  0  0  0  0  0  0  0
    3.7500    3.8971    0.0000 C   0  0  0  0  0  0  0  0  0  0  0  0
    4.5000    2.5981    0.0000 C   0  0  0  0  0  0  0  0  0  0  0  0
    6.0000    2.5981    0.0000 C   0  0  0  0  0  0  0  0  0  0  0  0
    3.7500    1.2990    0.0000 C   0  0  0  0  0  0  0  0  0  0  0  0
    1.5000   -2.5981    0.0000 C   0  0  0  0  0  0  0  0  0  0  0  0
  1  2  1  0
  2  3  2  0
  3  4  1  0
  4  5  1  0
  4  6  2  0
  6  7  1  0
  7  8  1  0
  8  9  1  0
  9 10  1  0
 10 11  1  0
 11 12  2  0
 12 13  1  0
 13 14  1  0
 13 15  2  0
 15 16  1  0
 16 17  1  0
 16 18  2  0
  9 19  1  0
 19 20  1  0
 20 21  2  0
 21 22  1  0
 22 23  1  0
 22 24  2  0
 24 25  1  0
 25 26  1  0
 25 27  2  0
  7 28  2  0
 28  2  1  0
 18 11  1  0
 27 20  1  0
M  END
>  <linear_selectivity>  (595) 
58

>  <denticity>  (595) 
1

>  <ligand_class>  (595) 
phosphite

$$$$
P(O-2,4-xylyl)3_110C_hexane
     RDKit          2D

 28 30  0  0  0  0  0  0  0  0999 V2000
    3.7500   -3.8971    0.0000 C   0  0  0  0  0  0  0  0  0  0  0  0
    2.2500   -3.8971    0.0000 C   0  0  0  0  0  0  0  0  0  0  0  0
    1.5000   -5.1962    0.0000 C   0  0  0  0  0  0  0  0  0  0  0  0
   -0.0000   -5.1962    0.0000 C   0  0  0  0  0  0  0  0  0  0  0  0
   -0.7500   -6.4952    0.0000 C   0  0  0  0  0  0  0  0  0  0  0  0
   -0.7500   -3.8971    0.0000 C   0  0  0  0  0  0  0  0  0  0  0  0
   -0.0000   -2.5981    0.0000 C   0  0  0  0  0  0  0  0  0  0  0  0
   -0.7500   -1.2990    0.0000 O   0  0  0  0  0  0  0  0  0  0  0  0
   -0.0000    0.0000    0.0000 P   0  0  0  0  0  0  0  0  0  0  0  0
   -0.7500    1.2990    0.0000 O   0  0  0  0  0  0  0  0  0  0  0  0
   -2.2500    1.2990    0.0000 C   0  0  0  0  0  0  0  0  0  0  0  0
   -3.0000   -0.0000    0.0000 C   0  0  0  0  0  0  0  0  0  0  0  0
   -4.5000   -0.0000    0.0000 C   0  0  0  0  0  0  0  0  0  0  0  0
   -5.2500   -1.2990    0.0000 C   0  0  0  0  0  0  0  0  0  0  0  0
   -5.2500    1.2990    0.0000 C   0  0  0  0  0  0  0  0  0  0  0  0
   -4.5000    2.5981    0.0000 C   0  0  0  0  0  0  0  0  0  0  0  0
   -5.2500    3.8971    0.0000 C   0  0  0  0  0  0  0  0  0  0  0  0
   -3.0000    2.5981    0.0000 C   0  0  0  0  0  0  0  0  0  0  0  0
    1.5000    0.0000    0.0000 O   0  0  0  0  0  0  0  0  0  0  0  0
    2.2500    1.2990    0.0000 C   0  0  0  0  0  0  0  0  0  0  0  0
    1.5000    2.5981    0.0000 C   0  0  0  0  0  0  0  0  0  0  0  0
    2.2500    3.8971    0.0000 C   0  0  0  0  0  0  0  0  0  0  0  0
    1.5000    5.1962    0.0000 C   0  0  0  0  0  0  0  0  0  0  0  0
    3.7500    3.8971    0.0000 C   0  0  0  0  0  0  0  0  0  0  0  0
    4.5000    2.5981    0.0000 C   0  0  0  0  0  0  0  0  0  0  0  0
    6.0000    2.5981    0.0000 C   0  0  0  0  0  0  0  0  0  0  0  0
    3.7500    1.2990    0.0000 C   0  0  0  0  0  0  0  0  0  0  0  0
    1.5000   -2.5981    0.0000 C   0  0  0  0  0  0  0  0  0  0  0  0
  1  2  1  0
  2  3  2  0
  3  4  1  0
  4  5  1  0
  4  6  2  0
  6  7  1  0
  7  8  1  0
  8  9  1  0
  9 10  1  0
 10 11  1  0
 11 12  2  0
 12 13  1  0
 13 14  1  0
 13 15  2  0
 15 16  1  0
 16 17  1  0
 16 18  2  0
  9 19  1  0
 19 20  1  0
 20 21  2  0
 21 22  1  0
 22 23  1  0
 22 24  2  0
 24 25  1  0
 25 26  1  0
 25 27  2  0
  7 28  2  0
 28  2  1  0
 18 11  1  0
 27 20  1  0
M  END
>  <linear_selectivity>  (596) 
62

>  <denticity>  (596) 
1

>  <ligand_class>  (596) 
phosphite

$$$$
P(O-2,4-xylyl)3_110C_benzene
     RDKit          2D

 28 30  0  0  0  0  0  0  0  0999 V2000
    3.7500   -3.8971    0.0000 C   0  0  0  0  0  0  0  0  0  0  0  0
    2.2500   -3.8971    0.0000 C   0  0  0  0  0  0  0  0  0  0  0  0
    1.5000   -5.1962    0.0000 C   0  0  0  0  0  0  0  0  0  0  0  0
   -0.0000   -5.1962    0.0000 C   0  0  0  0  0  0  0  0  0  0  0  0
   -0.7500   -6.4952    0.0000 C   0  0  0  0  0  0  0  0  0  0  0  0
   -0.7500   -3.8971    0.0000 C   0  0  0  0  0  0  0  0  0  0  0  0
   -0.0000   -2.5981    0.0000 C   0  0  0  0  0  0  0  0  0  0  0  0
   -0.7500   -1.2990    0.0000 O   0  0  0  0  0  0  0  0  0  0  0  0
   -0.0000    0.0000    0.0000 P   0  0  0  0  0  0  0  0  0  0  0  0
   -0.7500    1.2990    0.0000 O   0  0  0  0  0  0  0  0  0  0  0  0
   -2.2500    1.2990    0.0000 C   0  0  0  0  0  0  0  0  0  0  0  0
   -3.0000   -0.0000    0.0000 C   0  0  0  0  0  0  0  0  0  0  0  0
   -4.5000   -0.0000    0.0000 C   0  0  0  0  0  0  0  0  0  0  0  0
   -5.2500   -1.2990    0.0000 C   0  0  0  0  0  0  0  0  0  0  0  0
   -5.2500    1.2990    0.0000 C   0  0  0  0  0  0  0  0  0  0  0  0
   -4.5000    2.5981    0.0000 C   0  0  0  0  0  0  0  0  0  0  0  0
   -5.2500    3.8971    0.0000 C   0  0  0  0  0  0  0  0  0  0  0  0
   -3.0000    2.5981    0.0000 C   0  0  0  0  0  0  0  0  0  0  0  0
    1.5000    0.0000    0.0000 O   0  0  0  0  0  0  0  0  0  0  0  0
    2.2500    1.2990    0.0000 C   0  0  0  0  0  0  0  0  0  0  0  0
    1.5000    2.5981    0.0000 C   0  0  0  0  0  0  0  0  0  0  0  0
    2.2500    3.8971    0.0000 C   0  0  0  0  0  0  0  0  0  0  0  0
    1.5000    5.1962    0.0000 C   0  0  0  0  0  0  0  0  0  0  0  0
    3.7500    3.8971    0.0000 C   0  0  0  0  0  0  0  0  0  0  0  0
    4.5000    2.5981    0.0000 C   0  0  0  0  0  0  0  0  0  0  0  0
    6.0000    2.5981    0.0000 C   0  0  0  0  0  0  0  0  0  0  0  0
    3.7500    1.2990    0.0000 C   0  0  0  0  0  0  0  0  0  0  0  0
    1.5000   -2.5981    0.0000 C   0  0  0  0  0  0  0  0  0  0  0  0
  1  2  1  0
  2  3  2  0
  3  4  1  0
  4  5  1  0
  4  6  2  0
  6  7  1  0
  7  8  1  0
  8  9  1  0
  9 10  1  0
 10 11  1  0
 11 12  2  0
 12 13  1  0
 13 14  1  0
 13 15  2  0
 15 16  1  0
 16 17  1  0
 16 18  2  0
  9 19  1  0
 19 20  1  0
 20 21  2  0
 21 22  1  0
 22 23  1  0
 22 24  2  0
 24 25  1  0
 25 26  1  0
 25 27  2  0
  7 28  2  0
 28  2  1  0
 18 11  1  0
 27 20  1  0
M  END
>  <linear_selectivity>  (597) 
64

>  <denticity>  (597) 
1

>  <ligand_class>  (597) 
phosphite

$$$$
P(O-2,4-xylyl)3_120C_THF
     RDKit          2D

 28 30  0  0  0  0  0  0  0  0999 V2000
    3.7500   -3.8971    0.0000 C   0  0  0  0  0  0  0  0  0  0  0  0
    2.2500   -3.8971    0.0000 C   0  0  0  0  0  0  0  0  0  0  0  0
    1.5000   -5.1962    0.0000 C   0  0  0  0  0  0  0  0  0  0  0  0
   -0.0000   -5.1962    0.0000 C   0  0  0  0  0  0  0  0  0  0  0  0
   -0.7500   -6.4952    0.0000 C   0  0  0  0  0  0  0  0  0  0  0  0
   -0.7500   -3.8971    0.0000 C   0  0  0  0  0  0  0  0  0  0  0  0
   -0.0000   -2.5981    0.0000 C   0  0  0  0  0  0  0  0  0  0  0  0
   -0.7500   -1.2990    0.0000 O   0  0  0  0  0  0  0  0  0  0  0  0
   -0.0000    0.0000    0.0000 P   0  0  0  0  0  0  0  0  0  0  0  0
   -0.7500    1.2990    0.0000 O   0  0  0  0  0  0  0  0  0  0  0  0
   -2.2500    1.2990    0.0000 C   0  0  0  0  0  0  0  0  0  0  0  0
   -3.0000   -0.0000    0.0000 C   0  0  0  0  0  0  0  0  0  0  0  0
   -4.5000   -0.0000    0.0000 C   0  0  0  0  0  0  0  0  0  0  0  0
   -5.2500   -1.2990    0.0000 C   0  0  0  0  0  0  0  0  0  0  0  0
   -5.2500    1.2990    0.0000 C   0  0  0  0  0  0  0  0  0  0  0  0
   -4.5000    2.5981    0.0000 C   0  0  0  0  0  0  0  0  0  0  0  0
   -5.2500    3.8971    0.0000 C   0  0  0  0  0  0  0  0  0  0  0  0
   -3.0000    2.5981    0.0000 C   0  0  0  0  0  0  0  0  0  0  0  0
    1.5000    0.0000    0.0000 O   0  0  0  0  0  0  0  0  0  0  0  0
    2.2500    1.2990    0.0000 C   0  0  0  0  0  0  0  0  0  0  0  0
    1.5000    2.5981    0.0000 C   0  0  0  0  0  0  0  0  0  0  0  0
    2.2500    3.8971    0.0000 C   0  0  0  0  0  0  0  0  0  0  0  0
    1.5000    5.1962    0.0000 C   0  0  0  0  0  0  0  0  0  0  0  0
    3.7500    3.8971    0.0000 C   0  0  0  0  0  0  0  0  0  0  0  0
    4.5000    2.5981    0.0000 C   0  0  0  0  0  0  0  0  0  0  0  0
    6.0000    2.5981    0.0000 C   0  0  0  0  0  0  0  0  0  0  0  0
    3.7500    1.2990    0.0000 C   0  0  0  0  0  0  0  0  0  0  0  0
    1.5000   -2.5981    0.0000 C   0  0  0  0  0  0  0  0  0  0  0  0
  1  2  1  0
  2  3  2  0
  3  4  1  0
  4  5  1  0
  4  6  2  0
  6  7  1  0
  7  8  1  0
  8  9  1  0
  9 10  1  0
 10 11  1  0
 11 12  2  0
 12 13  1  0
 13 14  1  0
 13 15  2  0
 15 16  1  0
 16 17  1  0
 16 18  2  0
  9 19  1  0
 19 20  1  0
 20 21  2  0
 21 22  1  0
 22 23  1  0
 22 24  2  0
 24 25  1  0
 25 26  1  0
 25 27  2  0
  7 28  2  0
 28  2  1  0
 18 11  1  0
 27 20  1  0
M  END
>  <linear_selectivity>  (598) 
53

>  <denticity>  (598) 
1

>  <ligand_class>  (598) 
phosphite

$$$$
P(O-2,4-xylyl)3_120C_hexane
     RDKit          2D

 28 30  0  0  0  0  0  0  0  0999 V2000
    3.7500   -3.8971    0.0000 C   0  0  0  0  0  0  0  0  0  0  0  0
    2.2500   -3.8971    0.0000 C   0  0  0  0  0  0  0  0  0  0  0  0
    1.5000   -5.1962    0.0000 C   0  0  0  0  0  0  0  0  0  0  0  0
   -0.0000   -5.1962    0.0000 C   0  0  0  0  0  0  0  0  0  0  0  0
   -0.7500   -6.4952    0.0000 C   0  0  0  0  0  0  0  0  0  0  0  0
   -0.7500   -3.8971    0.0000 C   0  0  0  0  0  0  0  0  0  0  0  0
   -0.0000   -2.5981    0.0000 C   0  0  0  0  0  0  0  0  0  0  0  0
   -0.7500   -1.2990    0.0000 O   0  0  0  0  0  0  0  0  0  0  0  0
   -0.0000    0.0000    0.0000 P   0  0  0  0  0  0  0  0  0  0  0  0
   -0.7500    1.2990    0.0000 O   0  0  0  0  0  0  0  0  0  0  0  0
   -2.2500    1.2990    0.0000 C   0  0  0  0  0  0  0  0  0  0  0  0
   -3.0000   -0.0000    0.0000 C   0  0  0  0  0  0  0  0  0  0  0  0
   -4.5000   -0.0000    0.0000 C   0  0  0  0  0  0  0  0  0  0  0  0
   -5.2500   -1.2990    0.0000 C   0  0  0  0  0  0  0  0  0  0  0  0
   -5.2500    1.2990    0.0000 C   0  0  0  0  0  0  0  0  0  0  0  0
   -4.5000    2.5981    0.0000 C   0  0  0  0  0  0  0  0  0  0  0  0
   -5.2500    3.8971    0.0000 C   0  0  0  0  0  0  0  0  0  0  0  0
   -3.0000    2.5981    0.0000 C   0  0  0  0  0  0  0  0  0  0  0  0
    1.5000    0.0000    0.0000 O   0  0  0  0  0  0  0  0  0  0  0  0
    2.2500    1.2990    0.0000 C   0  0  0  0  0  0  0  0  0  0  0  0
    1.5000    2.5981    0.0000 C   0  0  0  0  0  0  0  0  0  0  0  0
    2.2500    3.8971    0.0000 C   0  0  0  0  0  0  0  0  0  0  0  0
    1.5000    5.1962    0.0000 C   0  0  0  0  0  0  0  0  0  0  0  0
    3.7500    3.8971    0.0000 C   0  0  0  0  0  0  0  0  0  0  0  0
    4.5000    2.5981    0.0000 C   0  0  0  0  0  0  0  0  0  0  0  0
    6.0000    2.5981    0.0000 C   0  0  0  0  0  0  0  0  0  0  0  0
    3.7500    1.2990    0.0000 C   0  0  0  0  0  0  0  0  0  0  0  0
    1.5000   -2.5981    0.0000 C   0  0  0  0  0  0  0  0  0  0  0  0
  1  2  1  0
  2  3  2  0
  3  4  1  0
  4  5  1  0
  4  6  2  0
  6  7  1  0
  7  8  1  0
  8  9  1  0
  9 10  1  0
 10 11  1  0
 11 12  2  0
 12 13  1  0
 13 14  1  0
 13 15  2  0
 15 16  1  0
 16 17  1  0
 16 18  2  0
  9 19  1  0
 19 20  1  0
 20 21  2  0
 21 22  1  0
 22 23  1  0
 22 24  2  0
 24 25  1  0
 25 26  1  0
 25 27  2  0
  7 28  2  0
 28  2  1  0
 18 11  1  0
 27 20  1  0
M  END
>  <linear_selectivity>  (599) 
59

>  <denticity>  (599) 
1

>  <ligand_class>  (599) 
phosphite

$$$$
P(O-2,4-xylyl)3_120C_benzene
     RDKit          2D

 28 30  0  0  0  0  0  0  0  0999 V2000
    3.7500   -3.8971    0.0000 C   0  0  0  0  0  0  0  0  0  0  0  0
    2.2500   -3.8971    0.0000 C   0  0  0  0  0  0  0  0  0  0  0  0
    1.5000   -5.1962    0.0000 C   0  0  0  0  0  0  0  0  0  0  0  0
   -0.0000   -5.1962    0.0000 C   0  0  0  0  0  0  0  0  0  0  0  0
   -0.7500   -6.4952    0.0000 C   0  0  0  0  0  0  0  0  0  0  0  0
   -0.7500   -3.8971    0.0000 C   0  0  0  0  0  0  0  0  0  0  0  0
   -0.0000   -2.5981    0.0000 C   0  0  0  0  0  0  0  0  0  0  0  0
   -0.7500   -1.2990    0.0000 O   0  0  0  0  0  0  0  0  0  0  0  0
   -0.0000    0.0000    0.0000 P   0  0  0  0  0  0  0  0  0  0  0  0
   -0.7500    1.2990    0.0000 O   0  0  0  0  0  0  0  0  0  0  0  0
   -2.2500    1.2990    0.0000 C   0  0  0  0  0  0  0  0  0  0  0  0
   -3.0000   -0.0000    0.0000 C   0  0  0  0  0  0  0  0  0  0  0  0
   -4.5000   -0.0000    0.0000 C   0  0  0  0  0  0  0  0  0  0  0  0
   -5.2500   -1.2990    0.0000 C   0  0  0  0  0  0  0  0  0  0  0  0
   -5.2500    1.2990    0.0000 C   0  0  0  0  0  0  0  0  0  0  0  0
   -4.5000    2.5981    0.0000 C   0  0  0  0  0  0  0  0  0  0  0  0
   -5.2500    3.8971    0.0000 C   0  0  0  0  0  0  0  0  0  0  0  0
   -3.0000    2.5981    0.0000 C   0  0  0  0  0  0  0  0  0  0  0  0
    1.5000    0.0000    0.0000 O   0  0  0  0  0  0  0  0  0  0  0  0
    2.2500    1.2990    0.0000 C   0  0  0  0  0  0  0  0  0  0  0  0
    1.5000    2.5981    0.0000 C   0  0  0  0  0  0  0  0  0  0  0  0
    2.2500    3.8971    0.0000 C   0  0  0  0  0  0  0  0  0  0  0  0
    1.5000    5.1962    0.0000 C   0  0  0  0  0  0  0  0  0  0  0  0
    3.7500    3.8971    0.0000 C   0  0  0  0  0  0  0  0  0  0  0  0
    4.5000    2.5981    0.0000 C   0  0  0  0  0  0  0  0  0  0  0  0
    6.0000    2.5981    0.0000 C   0  0  0  0  0  0  0  0  0  0  0  0
    3.7500    1.2990    0.0000 C   0  0  0  0  0  0  0  0  0  0  0  0
    1.5000   -2.5981    0.0000 C   0  0  0  0  0  0  0  0  0  0  0  0
  1  2  1  0
  2  3  2  0
  3  4  1  0
  4  5  1  0
  4  6  2  0
  6  7  1  0
  7  8  1  0
  8  9  1  0
  9 10  1  0
 10 11  1  0
 11 12  2  0
 12 13  1  0
 13 14  1  0
 13 15  2  0
 15 16  1  0
 16 17  1  0
 16 18  2  0
  9 19  1  0
 19 20  1  0
 20 21  2  0
 21 22  1  0
 22 23  1  0
 22 24  2  0
 24 25  1  0
 25 26  1  0
 25 27  2  0
  7 28  2  0
 28  2  1  0
 18 11  1  0
 27 20  1  0
M  END
>  <linear_selectivity>  (600) 
58

>  <denticity>  (600) 
1

>  <ligand_class>  (600) 
phosphite

$$$$
P(O-2,4-xylyl)3_120C_xylene
     RDKit          2D

 28 30  0  0  0  0  0  0  0  0999 V2000
    3.7500   -3.8971    0.0000 C   0  0  0  0  0  0  0  0  0  0  0  0
    2.2500   -3.8971    0.0000 C   0  0  0  0  0  0  0  0  0  0  0  0
    1.5000   -5.1962    0.0000 C   0  0  0  0  0  0  0  0  0  0  0  0
   -0.0000   -5.1962    0.0000 C   0  0  0  0  0  0  0  0  0  0  0  0
   -0.7500   -6.4952    0.0000 C   0  0  0  0  0  0  0  0  0  0  0  0
   -0.7500   -3.8971    0.0000 C   0  0  0  0  0  0  0  0  0  0  0  0
   -0.0000   -2.5981    0.0000 C   0  0  0  0  0  0  0  0  0  0  0  0
   -0.7500   -1.2990    0.0000 O   0  0  0  0  0  0  0  0  0  0  0  0
   -0.0000    0.0000    0.0000 P   0  0  0  0  0  0  0  0  0  0  0  0
   -0.7500    1.2990    0.0000 O   0  0  0  0  0  0  0  0  0  0  0  0
   -2.2500    1.2990    0.0000 C   0  0  0  0  0  0  0  0  0  0  0  0
   -3.0000   -0.0000    0.0000 C   0  0  0  0  0  0  0  0  0  0  0  0
   -4.5000   -0.0000    0.0000 C   0  0  0  0  0  0  0  0  0  0  0  0
   -5.2500   -1.2990    0.0000 C   0  0  0  0  0  0  0  0  0  0  0  0
   -5.2500    1.2990    0.0000 C   0  0  0  0  0  0  0  0  0  0  0  0
   -4.5000    2.5981    0.0000 C   0  0  0  0  0  0  0  0  0  0  0  0
   -5.2500    3.8971    0.0000 C   0  0  0  0  0  0  0  0  0  0  0  0
   -3.0000    2.5981    0.0000 C   0  0  0  0  0  0  0  0  0  0  0  0
    1.5000    0.0000    0.0000 O   0  0  0  0  0  0  0  0  0  0  0  0
    2.2500    1.2990    0.0000 C   0  0  0  0  0  0  0  0  0  0  0  0
    1.5000    2.5981    0.0000 C   0  0  0  0  0  0  0  0  0  0  0  0
    2.2500    3.8971    0.0000 C   0  0  0  0  0  0  0  0  0  0  0  0
    1.5000    5.1962    0.0000 C   0  0  0  0  0  0  0  0  0  0  0  0
    3.7500    3.8971    0.0000 C   0  0  0  0  0  0  0  0  0  0  0  0
    4.5000    2.5981    0.0000 C   0  0  0  0  0  0  0  0  0  0  0  0
    6.0000    2.5981    0.0000 C   0  0  0  0  0  0  0  0  0  0  0  0
    3.7500    1.2990    0.0000 C   0  0  0  0  0  0  0  0  0  0  0  0
    1.5000   -2.5981    0.0000 C   0  0  0  0  0  0  0  0  0  0  0  0
  1  2  1  0
  2  3  2  0
  3  4  1  0
  4  5  1  0
  4  6  2  0
  6  7  1  0
  7  8  1  0
  8  9  1  0
  9 10  1  0
 10 11  1  0
 11 12  2  0
 12 13  1  0
 13 14  1  0
 13 15  2  0
 15 16  1  0
 16 17  1  0
 16 18  2  0
  9 19  1  0
 19 20  1  0
 20 21  2  0
 21 22  1  0
 22 23  1  0
 22 24  2  0
 24 25  1  0
 25 26  1  0
 25 27  2  0
  7 28  2  0
 28  2  1  0
 18 11  1  0
 27 20  1  0
M  END
>  <linear_selectivity>  (601) 
58

>  <denticity>  (601) 
1

>  <ligand_class>  (601) 
phosphite

$$$$
P(O-2,4-xylyl)3_130C_toluene
     RDKit          2D

 28 30  0  0  0  0  0  0  0  0999 V2000
    3.7500   -3.8971    0.0000 C   0  0  0  0  0  0  0  0  0  0  0  0
    2.2500   -3.8971    0.0000 C   0  0  0  0  0  0  0  0  0  0  0  0
    1.5000   -5.1962    0.0000 C   0  0  0  0  0  0  0  0  0  0  0  0
   -0.0000   -5.1962    0.0000 C   0  0  0  0  0  0  0  0  0  0  0  0
   -0.7500   -6.4952    0.0000 C   0  0  0  0  0  0  0  0  0  0  0  0
   -0.7500   -3.8971    0.0000 C   0  0  0  0  0  0  0  0  0  0  0  0
   -0.0000   -2.5981    0.0000 C   0  0  0  0  0  0  0  0  0  0  0  0
   -0.7500   -1.2990    0.0000 O   0  0  0  0  0  0  0  0  0  0  0  0
   -0.0000    0.0000    0.0000 P   0  0  0  0  0  0  0  0  0  0  0  0
   -0.7500    1.2990    0.0000 O   0  0  0  0  0  0  0  0  0  0  0  0
   -2.2500    1.2990    0.0000 C   0  0  0  0  0  0  0  0  0  0  0  0
   -3.0000   -0.0000    0.0000 C   0  0  0  0  0  0  0  0  0  0  0  0
   -4.5000   -0.0000    0.0000 C   0  0  0  0  0  0  0  0  0  0  0  0
   -5.2500   -1.2990    0.0000 C   0  0  0  0  0  0  0  0  0  0  0  0
   -5.2500    1.2990    0.0000 C   0  0  0  0  0  0  0  0  0  0  0  0
   -4.5000    2.5981    0.0000 C   0  0  0  0  0  0  0  0  0  0  0  0
   -5.2500    3.8971    0.0000 C   0  0  0  0  0  0  0  0  0  0  0  0
   -3.0000    2.5981    0.0000 C   0  0  0  0  0  0  0  0  0  0  0  0
    1.5000    0.0000    0.0000 O   0  0  0  0  0  0  0  0  0  0  0  0
    2.2500    1.2990    0.0000 C   0  0  0  0  0  0  0  0  0  0  0  0
    1.5000    2.5981    0.0000 C   0  0  0  0  0  0  0  0  0  0  0  0
    2.2500    3.8971    0.0000 C   0  0  0  0  0  0  0  0  0  0  0  0
    1.5000    5.1962    0.0000 C   0  0  0  0  0  0  0  0  0  0  0  0
    3.7500    3.8971    0.0000 C   0  0  0  0  0  0  0  0  0  0  0  0
    4.5000    2.5981    0.0000 C   0  0  0  0  0  0  0  0  0  0  0  0
    6.0000    2.5981    0.0000 C   0  0  0  0  0  0  0  0  0  0  0  0
    3.7500    1.2990    0.0000 C   0  0  0  0  0  0  0  0  0  0  0  0
    1.5000   -2.5981    0.0000 C   0  0  0  0  0  0  0  0  0  0  0  0
  1  2  1  0
  2  3  2  0
  3  4  1  0
  4  5  1  0
  4  6  2  0
  6  7  1  0
  7  8  1  0
  8  9  1  0
  9 10  1  0
 10 11  1  0
 11 12  2  0
 12 13  1  0
 13 14  1  0
 13 15  2  0
 15 16  1  0
 16 17  1  0
 16 18  2  0
  9 19  1  0
 19 20  1  0
 20 21  2  0
 21 22  1  0
 22 23  1  0
 22 24  2  0
 24 25  1  0
 25 26  1  0
 25 27  2  0
  7 28  2  0
 28  2  1  0
 18 11  1  0
 27 20  1  0
M  END
>  <linear_selectivity>  (602) 
52

>  <denticity>  (602) 
1

>  <ligand_class>  (602) 
phosphite

$$$$
P(O-2,4-xylyl)3_130C_THF
     RDKit          2D

 28 30  0  0  0  0  0  0  0  0999 V2000
    3.7500   -3.8971    0.0000 C   0  0  0  0  0  0  0  0  0  0  0  0
    2.2500   -3.8971    0.0000 C   0  0  0  0  0  0  0  0  0  0  0  0
    1.5000   -5.1962    0.0000 C   0  0  0  0  0  0  0  0  0  0  0  0
   -0.0000   -5.1962    0.0000 C   0  0  0  0  0  0  0  0  0  0  0  0
   -0.7500   -6.4952    0.0000 C   0  0  0  0  0  0  0  0  0  0  0  0
   -0.7500   -3.8971    0.0000 C   0  0  0  0  0  0  0  0  0  0  0  0
   -0.0000   -2.5981    0.0000 C   0  0  0  0  0  0  0  0  0  0  0  0
   -0.7500   -1.2990    0.0000 O   0  0  0  0  0  0  0  0  0  0  0  0
   -0.0000    0.0000    0.0000 P   0  0  0  0  0  0  0  0  0  0  0  0
   -0.7500    1.2990    0.0000 O   0  0  0  0  0  0  0  0  0  0  0  0
   -2.2500    1.2990    0.0000 C   0  0  0  0  0  0  0  0  0  0  0  0
   -3.0000   -0.0000    0.0000 C   0  0  0  0  0  0  0  0  0  0  0  0
   -4.5000   -0.0000    0.0000 C   0  0  0  0  0  0  0  0  0  0  0  0
   -5.2500   -1.2990    0.0000 C   0  0  0  0  0  0  0  0  0  0  0  0
   -5.2500    1.2990    0.0000 C   0  0  0  0  0  0  0  0  0  0  0  0
   -4.5000    2.5981    0.0000 C   0  0  0  0  0  0  0  0  0  0  0  0
   -5.2500    3.8971    0.0000 C   0  0  0  0  0  0  0  0  0  0  0  0
   -3.0000    2.5981    0.0000 C   0  0  0  0  0  0  0  0  0  0  0  0
    1.5000    0.0000    0.0000 O   0  0  0  0  0  0  0  0  0  0  0  0
    2.2500    1.2990    0.0000 C   0  0  0  0  0  0  0  0  0  0  0  0
    1.5000    2.5981    0.0000 C   0  0  0  0  0  0  0  0  0  0  0  0
    2.2500    3.8971    0.0000 C   0  0  0  0  0  0  0  0  0  0  0  0
    1.5000    5.1962    0.0000 C   0  0  0  0  0  0  0  0  0  0  0  0
    3.7500    3.8971    0.0000 C   0  0  0  0  0  0  0  0  0  0  0  0
    4.5000    2.5981    0.0000 C   0  0  0  0  0  0  0  0  0  0  0  0
    6.0000    2.5981    0.0000 C   0  0  0  0  0  0  0  0  0  0  0  0
    3.7500    1.2990    0.0000 C   0  0  0  0  0  0  0  0  0  0  0  0
    1.5000   -2.5981    0.0000 C   0  0  0  0  0  0  0  0  0  0  0  0
  1  2  1  0
  2  3  2  0
  3  4  1  0
  4  5  1  0
  4  6  2  0
  6  7  1  0
  7  8  1  0
  8  9  1  0
  9 10  1  0
 10 11  1  0
 11 12  2  0
 12 13  1  0
 13 14  1  0
 13 15  2  0
 15 16  1  0
 16 17  1  0
 16 18  2  0
  9 19  1  0
 19 20  1  0
 20 21  2  0
 21 22  1  0
 22 23  1  0
 22 24  2  0
 24 25  1  0
 25 26  1  0
 25 27  2  0
  7 28  2  0
 28  2  1  0
 18 11  1  0
 27 20  1  0
M  END
>  <linear_selectivity>  (603) 
49

>  <denticity>  (603) 
1

>  <ligand_class>  (603) 
phosphite

$$$$
P(O-2,4-xylyl)3_130C_dioxane
     RDKit          2D

 28 30  0  0  0  0  0  0  0  0999 V2000
    3.7500   -3.8971    0.0000 C   0  0  0  0  0  0  0  0  0  0  0  0
    2.2500   -3.8971    0.0000 C   0  0  0  0  0  0  0  0  0  0  0  0
    1.5000   -5.1962    0.0000 C   0  0  0  0  0  0  0  0  0  0  0  0
   -0.0000   -5.1962    0.0000 C   0  0  0  0  0  0  0  0  0  0  0  0
   -0.7500   -6.4952    0.0000 C   0  0  0  0  0  0  0  0  0  0  0  0
   -0.7500   -3.8971    0.0000 C   0  0  0  0  0  0  0  0  0  0  0  0
   -0.0000   -2.5981    0.0000 C   0  0  0  0  0  0  0  0  0  0  0  0
   -0.7500   -1.2990    0.0000 O   0  0  0  0  0  0  0  0  0  0  0  0
   -0.0000    0.0000    0.0000 P   0  0  0  0  0  0  0  0  0  0  0  0
   -0.7500    1.2990    0.0000 O   0  0  0  0  0  0  0  0  0  0  0  0
   -2.2500    1.2990    0.0000 C   0  0  0  0  0  0  0  0  0  0  0  0
   -3.0000   -0.0000    0.0000 C   0  0  0  0  0  0  0  0  0  0  0  0
   -4.5000   -0.0000    0.0000 C   0  0  0  0  0  0  0  0  0  0  0  0
   -5.2500   -1.2990    0.0000 C   0  0  0  0  0  0  0  0  0  0  0  0
   -5.2500    1.2990    0.0000 C   0  0  0  0  0  0  0  0  0  0  0  0
   -4.5000    2.5981    0.0000 C   0  0  0  0  0  0  0  0  0  0  0  0
   -5.2500    3.8971    0.0000 C   0  0  0  0  0  0  0  0  0  0  0  0
   -3.0000    2.5981    0.0000 C   0  0  0  0  0  0  0  0  0  0  0  0
    1.5000    0.0000    0.0000 O   0  0  0  0  0  0  0  0  0  0  0  0
    2.2500    1.2990    0.0000 C   0  0  0  0  0  0  0  0  0  0  0  0
    1.5000    2.5981    0.0000 C   0  0  0  0  0  0  0  0  0  0  0  0
    2.2500    3.8971    0.0000 C   0  0  0  0  0  0  0  0  0  0  0  0
    1.5000    5.1962    0.0000 C   0  0  0  0  0  0  0  0  0  0  0  0
    3.7500    3.8971    0.0000 C   0  0  0  0  0  0  0  0  0  0  0  0
    4.5000    2.5981    0.0000 C   0  0  0  0  0  0  0  0  0  0  0  0
    6.0000    2.5981    0.0000 C   0  0  0  0  0  0  0  0  0  0  0  0
    3.7500    1.2990    0.0000 C   0  0  0  0  0  0  0  0  0  0  0  0
    1.5000   -2.5981    0.0000 C   0  0  0  0  0  0  0  0  0  0  0  0
  1  2  1  0
  2  3  2  0
  3  4  1  0
  4  5  1  0
  4  6  2  0
  6  7  1  0
  7  8  1  0
  8  9  1  0
  9 10  1  0
 10 11  1  0
 11 12  2  0
 12 13  1  0
 13 14  1  0
 13 15  2  0
 15 16  1  0
 16 17  1  0
 16 18  2  0
  9 19  1  0
 19 20  1  0
 20 21  2  0
 21 22  1  0
 22 23  1  0
 22 24  2  0
 24 25  1  0
 25 26  1  0
 25 27  2  0
  7 28  2  0
 28  2  1  0
 18 11  1  0
 27 20  1  0
M  END
>  <linear_selectivity>  (604) 
53

>  <denticity>  (604) 
1

>  <ligand_class>  (604) 
phosphite

$$$$
P(O-2,4-xylyl)3_130C_benzene
     RDKit          2D

 28 30  0  0  0  0  0  0  0  0999 V2000
    3.7500   -3.8971    0.0000 C   0  0  0  0  0  0  0  0  0  0  0  0
    2.2500   -3.8971    0.0000 C   0  0  0  0  0  0  0  0  0  0  0  0
    1.5000   -5.1962    0.0000 C   0  0  0  0  0  0  0  0  0  0  0  0
   -0.0000   -5.1962    0.0000 C   0  0  0  0  0  0  0  0  0  0  0  0
   -0.7500   -6.4952    0.0000 C   0  0  0  0  0  0  0  0  0  0  0  0
   -0.7500   -3.8971    0.0000 C   0  0  0  0  0  0  0  0  0  0  0  0
   -0.0000   -2.5981    0.0000 C   0  0  0  0  0  0  0  0  0  0  0  0
   -0.7500   -1.2990    0.0000 O   0  0  0  0  0  0  0  0  0  0  0  0
   -0.0000    0.0000    0.0000 P   0  0  0  0  0  0  0  0  0  0  0  0
   -0.7500    1.2990    0.0000 O   0  0  0  0  0  0  0  0  0  0  0  0
   -2.2500    1.2990    0.0000 C   0  0  0  0  0  0  0  0  0  0  0  0
   -3.0000   -0.0000    0.0000 C   0  0  0  0  0  0  0  0  0  0  0  0
   -4.5000   -0.0000    0.0000 C   0  0  0  0  0  0  0  0  0  0  0  0
   -5.2500   -1.2990    0.0000 C   0  0  0  0  0  0  0  0  0  0  0  0
   -5.2500    1.2990    0.0000 C   0  0  0  0  0  0  0  0  0  0  0  0
   -4.5000    2.5981    0.0000 C   0  0  0  0  0  0  0  0  0  0  0  0
   -5.2500    3.8971    0.0000 C   0  0  0  0  0  0  0  0  0  0  0  0
   -3.0000    2.5981    0.0000 C   0  0  0  0  0  0  0  0  0  0  0  0
    1.5000    0.0000    0.0000 O   0  0  0  0  0  0  0  0  0  0  0  0
    2.2500    1.2990    0.0000 C   0  0  0  0  0  0  0  0  0  0  0  0
    1.5000    2.5981    0.0000 C   0  0  0  0  0  0  0  0  0  0  0  0
    2.2500    3.8971    0.0000 C   0  0  0  0  0  0  0  0  0  0  0  0
    1.5000    5.1962    0.0000 C   0  0  0  0  0  0  0  0  0  0  0  0
    3.7500    3.8971    0.0000 C   0  0  0  0  0  0  0  0  0  0  0  0
    4.5000    2.5981    0.0000 C   0  0  0  0  0  0  0  0  0  0  0  0
    6.0000    2.5981    0.0000 C   0  0  0  0  0  0  0  0  0  0  0  0
    3.7500    1.2990    0.0000 C   0  0  0  0  0  0  0  0  0  0  0  0
    1.5000   -2.5981    0.0000 C   0  0  0  0  0  0  0  0  0  0  0  0
  1  2  1  0
  2  3  2  0
  3  4  1  0
  4  5  1  0
  4  6  2  0
  6  7  1  0
  7  8  1  0
  8  9  1  0
  9 10  1  0
 10 11  1  0
 11 12  2  0
 12 13  1  0
 13 14  1  0
 13 15  2  0
 15 16  1  0
 16 17  1  0
 16 18  2  0
  9 19  1  0
 19 20  1  0
 20 21  2  0
 21 22  1  0
 22 23  1  0
 22 24  2  0
 24 25  1  0
 25 26  1  0
 25 27  2  0
  7 28  2  0
 28  2  1  0
 18 11  1  0
 27 20  1  0
M  END
>  <linear_selectivity>  (605) 
57

>  <denticity>  (605) 
1

>  <ligand_class>  (605) 
phosphite

$$$$
P(O-2,4-xylyl)3_130C_xylene
     RDKit          2D

 28 30  0  0  0  0  0  0  0  0999 V2000
    3.7500   -3.8971    0.0000 C   0  0  0  0  0  0  0  0  0  0  0  0
    2.2500   -3.8971    0.0000 C   0  0  0  0  0  0  0  0  0  0  0  0
    1.5000   -5.1962    0.0000 C   0  0  0  0  0  0  0  0  0  0  0  0
   -0.0000   -5.1962    0.0000 C   0  0  0  0  0  0  0  0  0  0  0  0
   -0.7500   -6.4952    0.0000 C   0  0  0  0  0  0  0  0  0  0  0  0
   -0.7500   -3.8971    0.0000 C   0  0  0  0  0  0  0  0  0  0  0  0
   -0.0000   -2.5981    0.0000 C   0  0  0  0  0  0  0  0  0  0  0  0
   -0.7500   -1.2990    0.0000 O   0  0  0  0  0  0  0  0  0  0  0  0
   -0.0000    0.0000    0.0000 P   0  0  0  0  0  0  0  0  0  0  0  0
   -0.7500    1.2990    0.0000 O   0  0  0  0  0  0  0  0  0  0  0  0
   -2.2500    1.2990    0.0000 C   0  0  0  0  0  0  0  0  0  0  0  0
   -3.0000   -0.0000    0.0000 C   0  0  0  0  0  0  0  0  0  0  0  0
   -4.5000   -0.0000    0.0000 C   0  0  0  0  0  0  0  0  0  0  0  0
   -5.2500   -1.2990    0.0000 C   0  0  0  0  0  0  0  0  0  0  0  0
   -5.2500    1.2990    0.0000 C   0  0  0  0  0  0  0  0  0  0  0  0
   -4.5000    2.5981    0.0000 C   0  0  0  0  0  0  0  0  0  0  0  0
   -5.2500    3.8971    0.0000 C   0  0  0  0  0  0  0  0  0  0  0  0
   -3.0000    2.5981    0.0000 C   0  0  0  0  0  0  0  0  0  0  0  0
    1.5000    0.0000    0.0000 O   0  0  0  0  0  0  0  0  0  0  0  0
    2.2500    1.2990    0.0000 C   0  0  0  0  0  0  0  0  0  0  0  0
    1.5000    2.5981    0.0000 C   0  0  0  0  0  0  0  0  0  0  0  0
    2.2500    3.8971    0.0000 C   0  0  0  0  0  0  0  0  0  0  0  0
    1.5000    5.1962    0.0000 C   0  0  0  0  0  0  0  0  0  0  0  0
    3.7500    3.8971    0.0000 C   0  0  0  0  0  0  0  0  0  0  0  0
    4.5000    2.5981    0.0000 C   0  0  0  0  0  0  0  0  0  0  0  0
    6.0000    2.5981    0.0000 C   0  0  0  0  0  0  0  0  0  0  0  0
    3.7500    1.2990    0.0000 C   0  0  0  0  0  0  0  0  0  0  0  0
    1.5000   -2.5981    0.0000 C   0  0  0  0  0  0  0  0  0  0  0  0
  1  2  1  0
  2  3  2  0
  3  4  1  0
  4  5  1  0
  4  6  2  0
  6  7  1  0
  7  8  1  0
  8  9  1  0
  9 10  1  0
 10 11  1  0
 11 12  2  0
 12 13  1  0
 13 14  1  0
 13 15  2  0
 15 16  1  0
 16 17  1  0
 16 18  2  0
  9 19  1  0
 19 20  1  0
 20 21  2  0
 21 22  1  0
 22 23  1  0
 22 24  2  0
 24 25  1  0
 25 26  1  0
 25 27  2  0
  7 28  2  0
 28  2  1  0
 18 11  1  0
 27 20  1  0
M  END
>  <linear_selectivity>  (606) 
55

>  <denticity>  (606) 
1

>  <ligand_class>  (606) 
phosphite

$$$$
P(O-2,6-xylyl)3
     RDKit          2D

 28 30  0  0  0  0  0  0  0  0999 V2000
    4.0020    1.5333    0.0000 C   0  0  0  0  0  0  0  0  0  0  0  0
    3.7664    0.0519    0.0000 C   0  0  0  0  0  0  0  0  0  0  0  0
    2.3657   -0.4847    0.0000 C   0  0  0  0  0  0  0  0  0  0  0  0
    2.1301   -1.9661    0.0000 C   0  0  0  0  0  0  0  0  0  0  0  0
    3.2953   -2.9108    0.0000 C   0  0  0  0  0  0  0  0  0  0  0  0
    4.6960   -2.3742    0.0000 C   0  0  0  0  0  0  0  0  0  0  0  0
    4.9316   -0.8928    0.0000 C   0  0  0  0  0  0  0  0  0  0  0  0
    6.3323   -0.3561    0.0000 C   0  0  0  0  0  0  0  0  0  0  0  0
    1.2006    0.4600    0.0000 O   0  0  0  0  0  0  0  0  0  0  0  0
   -0.2001   -0.0767    0.0000 P   0  0  0  0  0  0  0  0  0  0  0  0
   -0.4357   -1.5580    0.0000 O   0  0  0  0  0  0  0  0  0  0  0  0
   -1.8364   -2.0947    0.0000 C   0  0  0  0  0  0  0  0  0  0  0  0
   -3.0015   -1.1500    0.0000 C   0  0  0  0  0  0  0  0  0  0  0  0
   -2.7659    0.3314    0.0000 C   0  0  0  0  0  0  0  0  0  0  0  0
   -4.4022   -1.6866    0.0000 C   0  0  0  0  0  0  0  0  0  0  0  0
   -4.6378   -3.1680    0.0000 C   0  0  0  0  0  0  0  0  0  0  0  0
   -3.4727   -4.1128    0.0000 C   0  0  0  0  0  0  0  0  0  0  0  0
   -2.0720   -3.5761    0.0000 C   0  0  0  0  0  0  0  0  0  0  0  0
   -0.9069   -4.5208    0.0000 C   0  0  0  0  0  0  0  0  0  0  0  0
   -1.3652    0.8681    0.0000 O   0  0  0  0  0  0  0  0  0  0  0  0
   -1.1296    2.3494    0.0000 C   0  0  0  0  0  0  0  0  0  0  0  0
   -2.2947    3.2942    0.0000 C   0  0  0  0  0  0  0  0  0  0  0  0
   -3.6955    2.7575    0.0000 C   0  0  0  0  0  0  0  0  0  0  0  0
   -2.0591    4.7755    0.0000 C   0  0  0  0  0  0  0  0  0  0  0  0
   -0.6584    5.3122    0.0000 C   0  0  0  0  0  0  0  0  0  0  0  0
    0.5067    4.3675    0.0000 C   0  0  0  0  0  0  0  0  0  0  0  0
    0.2711    2.8861    0.0000 C   0  0  0  0  0  0  0  0  0  0  0  0
    1.4362    1.9414    0.0000 C   0  0  0  0  0  0  0  0  0  0  0  0
  1  2  1  0
  2  3  2  0
  3  4  1  0
  4  5  2  0
  5  6  1  0
  6  7  2  0
  7  8  1  0
  3  9  1  0
  9 10  1  0
 10 11  1  0
 11 12  1  0
 12 13  2  0
 13 14  1  0
 13 15  1  0
 15 16  2  0
 16 17  1  0
 17 18  2  0
 18 19  1  0
 10 20  1  0
 20 21  1  0
 21 22  2  0
 22 23  1  0
 22 24  1  0
 24 25  2  0
 25 26  1  0
 26 27  2  0
 27 28  1  0
  7  2  1  0
 18 12  1  0
 27 21  1  0
M  END
>  <linear_selectivity>  (607) 
75

>  <denticity>  (607) 
1

>  <ligand_class>  (607) 
phosphite

$$$$
P(O-2,6-xylyl)3_70C_toluene
     RDKit          2D

 28 30  0  0  0  0  0  0  0  0999 V2000
    4.0020    1.5333    0.0000 C   0  0  0  0  0  0  0  0  0  0  0  0
    3.7664    0.0519    0.0000 C   0  0  0  0  0  0  0  0  0  0  0  0
    2.3657   -0.4847    0.0000 C   0  0  0  0  0  0  0  0  0  0  0  0
    2.1301   -1.9661    0.0000 C   0  0  0  0  0  0  0  0  0  0  0  0
    3.2953   -2.9108    0.0000 C   0  0  0  0  0  0  0  0  0  0  0  0
    4.6960   -2.3742    0.0000 C   0  0  0  0  0  0  0  0  0  0  0  0
    4.9316   -0.8928    0.0000 C   0  0  0  0  0  0  0  0  0  0  0  0
    6.3323   -0.3561    0.0000 C   0  0  0  0  0  0  0  0  0  0  0  0
    1.2006    0.4600    0.0000 O   0  0  0  0  0  0  0  0  0  0  0  0
   -0.2001   -0.0767    0.0000 P   0  0  0  0  0  0  0  0  0  0  0  0
   -0.4357   -1.5580    0.0000 O   0  0  0  0  0  0  0  0  0  0  0  0
   -1.8364   -2.0947    0.0000 C   0  0  0  0  0  0  0  0  0  0  0  0
   -3.0015   -1.1500    0.0000 C   0  0  0  0  0  0  0  0  0  0  0  0
   -2.7659    0.3314    0.0000 C   0  0  0  0  0  0  0  0  0  0  0  0
   -4.4022   -1.6866    0.0000 C   0  0  0  0  0  0  0  0  0  0  0  0
   -4.6378   -3.1680    0.0000 C   0  0  0  0  0  0  0  0  0  0  0  0
   -3.4727   -4.1128    0.0000 C   0  0  0  0  0  0  0  0  0  0  0  0
   -2.0720   -3.5761    0.0000 C   0  0  0  0  0  0  0  0  0  0  0  0
   -0.9069   -4.5208    0.0000 C   0  0  0  0  0  0  0  0  0  0  0  0
   -1.3652    0.8681    0.0000 O   0  0  0  0  0  0  0  0  0  0  0  0
   -1.1296    2.3494    0.0000 C   0  0  0  0  0  0  0  0  0  0  0  0
   -2.2947    3.2942    0.0000 C   0  0  0  0  0  0  0  0  0  0  0  0
   -3.6955    2.7575    0.0000 C   0  0  0  0  0  0  0  0  0  0  0  0
   -2.0591    4.7755    0.0000 C   0  0  0  0  0  0  0  0  0  0  0  0
   -0.6584    5.3122    0.0000 C   0  0  0  0  0  0  0  0  0  0  0  0
    0.5067    4.3675    0.0000 C   0  0  0  0  0  0  0  0  0  0  0  0
    0.2711    2.8861    0.0000 C   0  0  0  0  0  0  0  0  0  0  0  0
    1.4362    1.9414    0.0000 C   0  0  0  0  0  0  0  0  0  0  0  0
  1  2  1  0
  2  3  2  0
  3  4  1  0
  4  5  2  0
  5  6  1  0
  6  7  2  0
  7  8  1  0
  3  9  1  0
  9 10  1  0
 10 11  1  0
 11 12  1  0
 12 13  2  0
 13 14  1  0
 13 15  1  0
 15 16  2  0
 16 17  1  0
 17 18  2  0
 18 19  1  0
 10 20  1  0
 20 21  1  0
 21 22  2  0
 22 23  1  0
 22 24  1  0
 24 25  2  0
 25 26  1  0
 26 27  2  0
 27 28  1  0
  7  2  1  0
 18 12  1  0
 27 21  1  0
M  END
>  <linear_selectivity>  (608) 
84

>  <denticity>  (608) 
1

>  <ligand_class>  (608) 
phosphite

$$$$
P(O-2,6-xylyl)3_70C_THF
     RDKit          2D

 28 30  0  0  0  0  0  0  0  0999 V2000
    4.0020    1.5333    0.0000 C   0  0  0  0  0  0  0  0  0  0  0  0
    3.7664    0.0519    0.0000 C   0  0  0  0  0  0  0  0  0  0  0  0
    2.3657   -0.4847    0.0000 C   0  0  0  0  0  0  0  0  0  0  0  0
    2.1301   -1.9661    0.0000 C   0  0  0  0  0  0  0  0  0  0  0  0
    3.2953   -2.9108    0.0000 C   0  0  0  0  0  0  0  0  0  0  0  0
    4.6960   -2.3742    0.0000 C   0  0  0  0  0  0  0  0  0  0  0  0
    4.9316   -0.8928    0.0000 C   0  0  0  0  0  0  0  0  0  0  0  0
    6.3323   -0.3561    0.0000 C   0  0  0  0  0  0  0  0  0  0  0  0
    1.2006    0.4600    0.0000 O   0  0  0  0  0  0  0  0  0  0  0  0
   -0.2001   -0.0767    0.0000 P   0  0  0  0  0  0  0  0  0  0  0  0
   -0.4357   -1.5580    0.0000 O   0  0  0  0  0  0  0  0  0  0  0  0
   -1.8364   -2.0947    0.0000 C   0  0  0  0  0  0  0  0  0  0  0  0
   -3.0015   -1.1500    0.0000 C   0  0  0  0  0  0  0  0  0  0  0  0
   -2.7659    0.3314    0.0000 C   0  0  0  0  0  0  0  0  0  0  0  0
   -4.4022   -1.6866    0.0000 C   0  0  0  0  0  0  0  0  0  0  0  0
   -4.6378   -3.1680    0.0000 C   0  0  0  0  0  0  0  0  0  0  0  0
   -3.4727   -4.1128    0.0000 C   0  0  0  0  0  0  0  0  0  0  0  0
   -2.0720   -3.5761    0.0000 C   0  0  0  0  0  0  0  0  0  0  0  0
   -0.9069   -4.5208    0.0000 C   0  0  0  0  0  0  0  0  0  0  0  0
   -1.3652    0.8681    0.0000 O   0  0  0  0  0  0  0  0  0  0  0  0
   -1.1296    2.3494    0.0000 C   0  0  0  0  0  0  0  0  0  0  0  0
   -2.2947    3.2942    0.0000 C   0  0  0  0  0  0  0  0  0  0  0  0
   -3.6955    2.7575    0.0000 C   0  0  0  0  0  0  0  0  0  0  0  0
   -2.0591    4.7755    0.0000 C   0  0  0  0  0  0  0  0  0  0  0  0
   -0.6584    5.3122    0.0000 C   0  0  0  0  0  0  0  0  0  0  0  0
    0.5067    4.3675    0.0000 C   0  0  0  0  0  0  0  0  0  0  0  0
    0.2711    2.8861    0.0000 C   0  0  0  0  0  0  0  0  0  0  0  0
    1.4362    1.9414    0.0000 C   0  0  0  0  0  0  0  0  0  0  0  0
  1  2  1  0
  2  3  2  0
  3  4  1  0
  4  5  2  0
  5  6  1  0
  6  7  2  0
  7  8  1  0
  3  9  1  0
  9 10  1  0
 10 11  1  0
 11 12  1  0
 12 13  2  0
 13 14  1  0
 13 15  1  0
 15 16  2  0
 16 17  1  0
 17 18  2  0
 18 19  1  0
 10 20  1  0
 20 21  1  0
 21 22  2  0
 22 23  1  0
 22 24  1  0
 24 25  2  0
 25 26  1  0
 26 27  2  0
 27 28  1  0
  7  2  1  0
 18 12  1  0
 27 21  1  0
M  END
>  <linear_selectivity>  (609) 
81

>  <denticity>  (609) 
1

>  <ligand_class>  (609) 
phosphite

$$$$
P(O-2,6-xylyl)3_70C_dioxane
     RDKit          2D

 28 30  0  0  0  0  0  0  0  0999 V2000
    4.0020    1.5333    0.0000 C   0  0  0  0  0  0  0  0  0  0  0  0
    3.7664    0.0519    0.0000 C   0  0  0  0  0  0  0  0  0  0  0  0
    2.3657   -0.4847    0.0000 C   0  0  0  0  0  0  0  0  0  0  0  0
    2.1301   -1.9661    0.0000 C   0  0  0  0  0  0  0  0  0  0  0  0
    3.2953   -2.9108    0.0000 C   0  0  0  0  0  0  0  0  0  0  0  0
    4.6960   -2.3742    0.0000 C   0  0  0  0  0  0  0  0  0  0  0  0
    4.9316   -0.8928    0.0000 C   0  0  0  0  0  0  0  0  0  0  0  0
    6.3323   -0.3561    0.0000 C   0  0  0  0  0  0  0  0  0  0  0  0
    1.2006    0.4600    0.0000 O   0  0  0  0  0  0  0  0  0  0  0  0
   -0.2001   -0.0767    0.0000 P   0  0  0  0  0  0  0  0  0  0  0  0
   -0.4357   -1.5580    0.0000 O   0  0  0  0  0  0  0  0  0  0  0  0
   -1.8364   -2.0947    0.0000 C   0  0  0  0  0  0  0  0  0  0  0  0
   -3.0015   -1.1500    0.0000 C   0  0  0  0  0  0  0  0  0  0  0  0
   -2.7659    0.3314    0.0000 C   0  0  0  0  0  0  0  0  0  0  0  0
   -4.4022   -1.6866    0.0000 C   0  0  0  0  0  0  0  0  0  0  0  0
   -4.6378   -3.1680    0.0000 C   0  0  0  0  0  0  0  0  0  0  0  0
   -3.4727   -4.1128    0.0000 C   0  0  0  0  0  0  0  0  0  0  0  0
   -2.0720   -3.5761    0.0000 C   0  0  0  0  0  0  0  0  0  0  0  0
   -0.9069   -4.5208    0.0000 C   0  0  0  0  0  0  0  0  0  0  0  0
   -1.3652    0.8681    0.0000 O   0  0  0  0  0  0  0  0  0  0  0  0
   -1.1296    2.3494    0.0000 C   0  0  0  0  0  0  0  0  0  0  0  0
   -2.2947    3.2942    0.0000 C   0  0  0  0  0  0  0  0  0  0  0  0
   -3.6955    2.7575    0.0000 C   0  0  0  0  0  0  0  0  0  0  0  0
   -2.0591    4.7755    0.0000 C   0  0  0  0  0  0  0  0  0  0  0  0
   -0.6584    5.3122    0.0000 C   0  0  0  0  0  0  0  0  0  0  0  0
    0.5067    4.3675    0.0000 C   0  0  0  0  0  0  0  0  0  0  0  0
    0.2711    2.8861    0.0000 C   0  0  0  0  0  0  0  0  0  0  0  0
    1.4362    1.9414    0.0000 C   0  0  0  0  0  0  0  0  0  0  0  0
  1  2  1  0
  2  3  2  0
  3  4  1  0
  4  5  2  0
  5  6  1  0
  6  7  2  0
  7  8  1  0
  3  9  1  0
  9 10  1  0
 10 11  1  0
 11 12  1  0
 12 13  2  0
 13 14  1  0
 13 15  1  0
 15 16  2  0
 16 17  1  0
 17 18  2  0
 18 19  1  0
 10 20  1  0
 20 21  1  0
 21 22  2  0
 22 23  1  0
 22 24  1  0
 24 25  2  0
 25 26  1  0
 26 27  2  0
 27 28  1  0
  7  2  1  0
 18 12  1  0
 27 21  1  0
M  END
>  <linear_selectivity>  (610) 
77

>  <denticity>  (610) 
1

>  <ligand_class>  (610) 
phosphite

$$$$
P(O-2,6-xylyl)3_70C_hexane
     RDKit          2D

 28 30  0  0  0  0  0  0  0  0999 V2000
    4.0020    1.5333    0.0000 C   0  0  0  0  0  0  0  0  0  0  0  0
    3.7664    0.0519    0.0000 C   0  0  0  0  0  0  0  0  0  0  0  0
    2.3657   -0.4847    0.0000 C   0  0  0  0  0  0  0  0  0  0  0  0
    2.1301   -1.9661    0.0000 C   0  0  0  0  0  0  0  0  0  0  0  0
    3.2953   -2.9108    0.0000 C   0  0  0  0  0  0  0  0  0  0  0  0
    4.6960   -2.3742    0.0000 C   0  0  0  0  0  0  0  0  0  0  0  0
    4.9316   -0.8928    0.0000 C   0  0  0  0  0  0  0  0  0  0  0  0
    6.3323   -0.3561    0.0000 C   0  0  0  0  0  0  0  0  0  0  0  0
    1.2006    0.4600    0.0000 O   0  0  0  0  0  0  0  0  0  0  0  0
   -0.2001   -0.0767    0.0000 P   0  0  0  0  0  0  0  0  0  0  0  0
   -0.4357   -1.5580    0.0000 O   0  0  0  0  0  0  0  0  0  0  0  0
   -1.8364   -2.0947    0.0000 C   0  0  0  0  0  0  0  0  0  0  0  0
   -3.0015   -1.1500    0.0000 C   0  0  0  0  0  0  0  0  0  0  0  0
   -2.7659    0.3314    0.0000 C   0  0  0  0  0  0  0  0  0  0  0  0
   -4.4022   -1.6866    0.0000 C   0  0  0  0  0  0  0  0  0  0  0  0
   -4.6378   -3.1680    0.0000 C   0  0  0  0  0  0  0  0  0  0  0  0
   -3.4727   -4.1128    0.0000 C   0  0  0  0  0  0  0  0  0  0  0  0
   -2.0720   -3.5761    0.0000 C   0  0  0  0  0  0  0  0  0  0  0  0
   -0.9069   -4.5208    0.0000 C   0  0  0  0  0  0  0  0  0  0  0  0
   -1.3652    0.8681    0.0000 O   0  0  0  0  0  0  0  0  0  0  0  0
   -1.1296    2.3494    0.0000 C   0  0  0  0  0  0  0  0  0  0  0  0
   -2.2947    3.2942    0.0000 C   0  0  0  0  0  0  0  0  0  0  0  0
   -3.6955    2.7575    0.0000 C   0  0  0  0  0  0  0  0  0  0  0  0
   -2.0591    4.7755    0.0000 C   0  0  0  0  0  0  0  0  0  0  0  0
   -0.6584    5.3122    0.0000 C   0  0  0  0  0  0  0  0  0  0  0  0
    0.5067    4.3675    0.0000 C   0  0  0  0  0  0  0  0  0  0  0  0
    0.2711    2.8861    0.0000 C   0  0  0  0  0  0  0  0  0  0  0  0
    1.4362    1.9414    0.0000 C   0  0  0  0  0  0  0  0  0  0  0  0
  1  2  1  0
  2  3  2  0
  3  4  1  0
  4  5  2  0
  5  6  1  0
  6  7  2  0
  7  8  1  0
  3  9  1  0
  9 10  1  0
 10 11  1  0
 11 12  1  0
 12 13  2  0
 13 14  1  0
 13 15  1  0
 15 16  2  0
 16 17  1  0
 17 18  2  0
 18 19  1  0
 10 20  1  0
 20 21  1  0
 21 22  2  0
 22 23  1  0
 22 24  1  0
 24 25  2  0
 25 26  1  0
 26 27  2  0
 27 28  1  0
  7  2  1  0
 18 12  1  0
 27 21  1  0
M  END
>  <linear_selectivity>  (611) 
85

>  <denticity>  (611) 
1

>  <ligand_class>  (611) 
phosphite

$$$$
P(O-2,6-xylyl)3_70C_benzene
     RDKit          2D

 28 30  0  0  0  0  0  0  0  0999 V2000
    4.0020    1.5333    0.0000 C   0  0  0  0  0  0  0  0  0  0  0  0
    3.7664    0.0519    0.0000 C   0  0  0  0  0  0  0  0  0  0  0  0
    2.3657   -0.4847    0.0000 C   0  0  0  0  0  0  0  0  0  0  0  0
    2.1301   -1.9661    0.0000 C   0  0  0  0  0  0  0  0  0  0  0  0
    3.2953   -2.9108    0.0000 C   0  0  0  0  0  0  0  0  0  0  0  0
    4.6960   -2.3742    0.0000 C   0  0  0  0  0  0  0  0  0  0  0  0
    4.9316   -0.8928    0.0000 C   0  0  0  0  0  0  0  0  0  0  0  0
    6.3323   -0.3561    0.0000 C   0  0  0  0  0  0  0  0  0  0  0  0
    1.2006    0.4600    0.0000 O   0  0  0  0  0  0  0  0  0  0  0  0
   -0.2001   -0.0767    0.0000 P   0  0  0  0  0  0  0  0  0  0  0  0
   -0.4357   -1.5580    0.0000 O   0  0  0  0  0  0  0  0  0  0  0  0
   -1.8364   -2.0947    0.0000 C   0  0  0  0  0  0  0  0  0  0  0  0
   -3.0015   -1.1500    0.0000 C   0  0  0  0  0  0  0  0  0  0  0  0
   -2.7659    0.3314    0.0000 C   0  0  0  0  0  0  0  0  0  0  0  0
   -4.4022   -1.6866    0.0000 C   0  0  0  0  0  0  0  0  0  0  0  0
   -4.6378   -3.1680    0.0000 C   0  0  0  0  0  0  0  0  0  0  0  0
   -3.4727   -4.1128    0.0000 C   0  0  0  0  0  0  0  0  0  0  0  0
   -2.0720   -3.5761    0.0000 C   0  0  0  0  0  0  0  0  0  0  0  0
   -0.9069   -4.5208    0.0000 C   0  0  0  0  0  0  0  0  0  0  0  0
   -1.3652    0.8681    0.0000 O   0  0  0  0  0  0  0  0  0  0  0  0
   -1.1296    2.3494    0.0000 C   0  0  0  0  0  0  0  0  0  0  0  0
   -2.2947    3.2942    0.0000 C   0  0  0  0  0  0  0  0  0  0  0  0
   -3.6955    2.7575    0.0000 C   0  0  0  0  0  0  0  0  0  0  0  0
   -2.0591    4.7755    0.0000 C   0  0  0  0  0  0  0  0  0  0  0  0
   -0.6584    5.3122    0.0000 C   0  0  0  0  0  0  0  0  0  0  0  0
    0.5067    4.3675    0.0000 C   0  0  0  0  0  0  0  0  0  0  0  0
    0.2711    2.8861    0.0000 C   0  0  0  0  0  0  0  0  0  0  0  0
    1.4362    1.9414    0.0000 C   0  0  0  0  0  0  0  0  0  0  0  0
  1  2  1  0
  2  3  2  0
  3  4  1  0
  4  5  2  0
  5  6  1  0
  6  7  2  0
  7  8  1  0
  3  9  1  0
  9 10  1  0
 10 11  1  0
 11 12  1  0
 12 13  2  0
 13 14  1  0
 13 15  1  0
 15 16  2  0
 16 17  1  0
 17 18  2  0
 18 19  1  0
 10 20  1  0
 20 21  1  0
 21 22  2  0
 22 23  1  0
 22 24  1  0
 24 25  2  0
 25 26  1  0
 26 27  2  0
 27 28  1  0
  7  2  1  0
 18 12  1  0
 27 21  1  0
M  END
>  <linear_selectivity>  (612) 
88

>  <denticity>  (612) 
1

>  <ligand_class>  (612) 
phosphite

$$$$
P(O-2,6-xylyl)3_70C_xylene
     RDKit          2D

 28 30  0  0  0  0  0  0  0  0999 V2000
    4.0020    1.5333    0.0000 C   0  0  0  0  0  0  0  0  0  0  0  0
    3.7664    0.0519    0.0000 C   0  0  0  0  0  0  0  0  0  0  0  0
    2.3657   -0.4847    0.0000 C   0  0  0  0  0  0  0  0  0  0  0  0
    2.1301   -1.9661    0.0000 C   0  0  0  0  0  0  0  0  0  0  0  0
    3.2953   -2.9108    0.0000 C   0  0  0  0  0  0  0  0  0  0  0  0
    4.6960   -2.3742    0.0000 C   0  0  0  0  0  0  0  0  0  0  0  0
    4.9316   -0.8928    0.0000 C   0  0  0  0  0  0  0  0  0  0  0  0
    6.3323   -0.3561    0.0000 C   0  0  0  0  0  0  0  0  0  0  0  0
    1.2006    0.4600    0.0000 O   0  0  0  0  0  0  0  0  0  0  0  0
   -0.2001   -0.0767    0.0000 P   0  0  0  0  0  0  0  0  0  0  0  0
   -0.4357   -1.5580    0.0000 O   0  0  0  0  0  0  0  0  0  0  0  0
   -1.8364   -2.0947    0.0000 C   0  0  0  0  0  0  0  0  0  0  0  0
   -3.0015   -1.1500    0.0000 C   0  0  0  0  0  0  0  0  0  0  0  0
   -2.7659    0.3314    0.0000 C   0  0  0  0  0  0  0  0  0  0  0  0
   -4.4022   -1.6866    0.0000 C   0  0  0  0  0  0  0  0  0  0  0  0
   -4.6378   -3.1680    0.0000 C   0  0  0  0  0  0  0  0  0  0  0  0
   -3.4727   -4.1128    0.0000 C   0  0  0  0  0  0  0  0  0  0  0  0
   -2.0720   -3.5761    0.0000 C   0  0  0  0  0  0  0  0  0  0  0  0
   -0.9069   -4.5208    0.0000 C   0  0  0  0  0  0  0  0  0  0  0  0
   -1.3652    0.8681    0.0000 O   0  0  0  0  0  0  0  0  0  0  0  0
   -1.1296    2.3494    0.0000 C   0  0  0  0  0  0  0  0  0  0  0  0
   -2.2947    3.2942    0.0000 C   0  0  0  0  0  0  0  0  0  0  0  0
   -3.6955    2.7575    0.0000 C   0  0  0  0  0  0  0  0  0  0  0  0
   -2.0591    4.7755    0.0000 C   0  0  0  0  0  0  0  0  0  0  0  0
   -0.6584    5.3122    0.0000 C   0  0  0  0  0  0  0  0  0  0  0  0
    0.5067    4.3675    0.0000 C   0  0  0  0  0  0  0  0  0  0  0  0
    0.2711    2.8861    0.0000 C   0  0  0  0  0  0  0  0  0  0  0  0
    1.4362    1.9414    0.0000 C   0  0  0  0  0  0  0  0  0  0  0  0
  1  2  1  0
  2  3  2  0
  3  4  1  0
  4  5  2  0
  5  6  1  0
  6  7  2  0
  7  8  1  0
  3  9  1  0
  9 10  1  0
 10 11  1  0
 11 12  1  0
 12 13  2  0
 13 14  1  0
 13 15  1  0
 15 16  2  0
 16 17  1  0
 17 18  2  0
 18 19  1  0
 10 20  1  0
 20 21  1  0
 21 22  2  0
 22 23  1  0
 22 24  1  0
 24 25  2  0
 25 26  1  0
 26 27  2  0
 27 28  1  0
  7  2  1  0
 18 12  1  0
 27 21  1  0
M  END
>  <linear_selectivity>  (613) 
86

>  <denticity>  (613) 
1

>  <ligand_class>  (613) 
phosphite

$$$$
P(O-2,6-xylyl)3_80C_THF
     RDKit          2D

 28 30  0  0  0  0  0  0  0  0999 V2000
    4.0020    1.5333    0.0000 C   0  0  0  0  0  0  0  0  0  0  0  0
    3.7664    0.0519    0.0000 C   0  0  0  0  0  0  0  0  0  0  0  0
    2.3657   -0.4847    0.0000 C   0  0  0  0  0  0  0  0  0  0  0  0
    2.1301   -1.9661    0.0000 C   0  0  0  0  0  0  0  0  0  0  0  0
    3.2953   -2.9108    0.0000 C   0  0  0  0  0  0  0  0  0  0  0  0
    4.6960   -2.3742    0.0000 C   0  0  0  0  0  0  0  0  0  0  0  0
    4.9316   -0.8928    0.0000 C   0  0  0  0  0  0  0  0  0  0  0  0
    6.3323   -0.3561    0.0000 C   0  0  0  0  0  0  0  0  0  0  0  0
    1.2006    0.4600    0.0000 O   0  0  0  0  0  0  0  0  0  0  0  0
   -0.2001   -0.0767    0.0000 P   0  0  0  0  0  0  0  0  0  0  0  0
   -0.4357   -1.5580    0.0000 O   0  0  0  0  0  0  0  0  0  0  0  0
   -1.8364   -2.0947    0.0000 C   0  0  0  0  0  0  0  0  0  0  0  0
   -3.0015   -1.1500    0.0000 C   0  0  0  0  0  0  0  0  0  0  0  0
   -2.7659    0.3314    0.0000 C   0  0  0  0  0  0  0  0  0  0  0  0
   -4.4022   -1.6866    0.0000 C   0  0  0  0  0  0  0  0  0  0  0  0
   -4.6378   -3.1680    0.0000 C   0  0  0  0  0  0  0  0  0  0  0  0
   -3.4727   -4.1128    0.0000 C   0  0  0  0  0  0  0  0  0  0  0  0
   -2.0720   -3.5761    0.0000 C   0  0  0  0  0  0  0  0  0  0  0  0
   -0.9069   -4.5208    0.0000 C   0  0  0  0  0  0  0  0  0  0  0  0
   -1.3652    0.8681    0.0000 O   0  0  0  0  0  0  0  0  0  0  0  0
   -1.1296    2.3494    0.0000 C   0  0  0  0  0  0  0  0  0  0  0  0
   -2.2947    3.2942    0.0000 C   0  0  0  0  0  0  0  0  0  0  0  0
   -3.6955    2.7575    0.0000 C   0  0  0  0  0  0  0  0  0  0  0  0
   -2.0591    4.7755    0.0000 C   0  0  0  0  0  0  0  0  0  0  0  0
   -0.6584    5.3122    0.0000 C   0  0  0  0  0  0  0  0  0  0  0  0
    0.5067    4.3675    0.0000 C   0  0  0  0  0  0  0  0  0  0  0  0
    0.2711    2.8861    0.0000 C   0  0  0  0  0  0  0  0  0  0  0  0
    1.4362    1.9414    0.0000 C   0  0  0  0  0  0  0  0  0  0  0  0
  1  2  1  0
  2  3  2  0
  3  4  1  0
  4  5  2  0
  5  6  1  0
  6  7  2  0
  7  8  1  0
  3  9  1  0
  9 10  1  0
 10 11  1  0
 11 12  1  0
 12 13  2  0
 13 14  1  0
 13 15  1  0
 15 16  2  0
 16 17  1  0
 17 18  2  0
 18 19  1  0
 10 20  1  0
 20 21  1  0
 21 22  2  0
 22 23  1  0
 22 24  1  0
 24 25  2  0
 25 26  1  0
 26 27  2  0
 27 28  1  0
  7  2  1  0
 18 12  1  0
 27 21  1  0
M  END
>  <linear_selectivity>  (614) 
73

>  <denticity>  (614) 
1

>  <ligand_class>  (614) 
phosphite

$$$$
P(O-2,6-xylyl)3_80C_dioxane
     RDKit          2D

 28 30  0  0  0  0  0  0  0  0999 V2000
    4.0020    1.5333    0.0000 C   0  0  0  0  0  0  0  0  0  0  0  0
    3.7664    0.0519    0.0000 C   0  0  0  0  0  0  0  0  0  0  0  0
    2.3657   -0.4847    0.0000 C   0  0  0  0  0  0  0  0  0  0  0  0
    2.1301   -1.9661    0.0000 C   0  0  0  0  0  0  0  0  0  0  0  0
    3.2953   -2.9108    0.0000 C   0  0  0  0  0  0  0  0  0  0  0  0
    4.6960   -2.3742    0.0000 C   0  0  0  0  0  0  0  0  0  0  0  0
    4.9316   -0.8928    0.0000 C   0  0  0  0  0  0  0  0  0  0  0  0
    6.3323   -0.3561    0.0000 C   0  0  0  0  0  0  0  0  0  0  0  0
    1.2006    0.4600    0.0000 O   0  0  0  0  0  0  0  0  0  0  0  0
   -0.2001   -0.0767    0.0000 P   0  0  0  0  0  0  0  0  0  0  0  0
   -0.4357   -1.5580    0.0000 O   0  0  0  0  0  0  0  0  0  0  0  0
   -1.8364   -2.0947    0.0000 C   0  0  0  0  0  0  0  0  0  0  0  0
   -3.0015   -1.1500    0.0000 C   0  0  0  0  0  0  0  0  0  0  0  0
   -2.7659    0.3314    0.0000 C   0  0  0  0  0  0  0  0  0  0  0  0
   -4.4022   -1.6866    0.0000 C   0  0  0  0  0  0  0  0  0  0  0  0
   -4.6378   -3.1680    0.0000 C   0  0  0  0  0  0  0  0  0  0  0  0
   -3.4727   -4.1128    0.0000 C   0  0  0  0  0  0  0  0  0  0  0  0
   -2.0720   -3.5761    0.0000 C   0  0  0  0  0  0  0  0  0  0  0  0
   -0.9069   -4.5208    0.0000 C   0  0  0  0  0  0  0  0  0  0  0  0
   -1.3652    0.8681    0.0000 O   0  0  0  0  0  0  0  0  0  0  0  0
   -1.1296    2.3494    0.0000 C   0  0  0  0  0  0  0  0  0  0  0  0
   -2.2947    3.2942    0.0000 C   0  0  0  0  0  0  0  0  0  0  0  0
   -3.6955    2.7575    0.0000 C   0  0  0  0  0  0  0  0  0  0  0  0
   -2.0591    4.7755    0.0000 C   0  0  0  0  0  0  0  0  0  0  0  0
   -0.6584    5.3122    0.0000 C   0  0  0  0  0  0  0  0  0  0  0  0
    0.5067    4.3675    0.0000 C   0  0  0  0  0  0  0  0  0  0  0  0
    0.2711    2.8861    0.0000 C   0  0  0  0  0  0  0  0  0  0  0  0
    1.4362    1.9414    0.0000 C   0  0  0  0  0  0  0  0  0  0  0  0
  1  2  1  0
  2  3  2  0
  3  4  1  0
  4  5  2  0
  5  6  1  0
  6  7  2  0
  7  8  1  0
  3  9  1  0
  9 10  1  0
 10 11  1  0
 11 12  1  0
 12 13  2  0
 13 14  1  0
 13 15  1  0
 15 16  2  0
 16 17  1  0
 17 18  2  0
 18 19  1  0
 10 20  1  0
 20 21  1  0
 21 22  2  0
 22 23  1  0
 22 24  1  0
 24 25  2  0
 25 26  1  0
 26 27  2  0
 27 28  1  0
  7  2  1  0
 18 12  1  0
 27 21  1  0
M  END
>  <linear_selectivity>  (615) 
78

>  <denticity>  (615) 
1

>  <ligand_class>  (615) 
phosphite

$$$$
P(O-2,6-xylyl)3_80C_benzene
     RDKit          2D

 28 30  0  0  0  0  0  0  0  0999 V2000
    4.0020    1.5333    0.0000 C   0  0  0  0  0  0  0  0  0  0  0  0
    3.7664    0.0519    0.0000 C   0  0  0  0  0  0  0  0  0  0  0  0
    2.3657   -0.4847    0.0000 C   0  0  0  0  0  0  0  0  0  0  0  0
    2.1301   -1.9661    0.0000 C   0  0  0  0  0  0  0  0  0  0  0  0
    3.2953   -2.9108    0.0000 C   0  0  0  0  0  0  0  0  0  0  0  0
    4.6960   -2.3742    0.0000 C   0  0  0  0  0  0  0  0  0  0  0  0
    4.9316   -0.8928    0.0000 C   0  0  0  0  0  0  0  0  0  0  0  0
    6.3323   -0.3561    0.0000 C   0  0  0  0  0  0  0  0  0  0  0  0
    1.2006    0.4600    0.0000 O   0  0  0  0  0  0  0  0  0  0  0  0
   -0.2001   -0.0767    0.0000 P   0  0  0  0  0  0  0  0  0  0  0  0
   -0.4357   -1.5580    0.0000 O   0  0  0  0  0  0  0  0  0  0  0  0
   -1.8364   -2.0947    0.0000 C   0  0  0  0  0  0  0  0  0  0  0  0
   -3.0015   -1.1500    0.0000 C   0  0  0  0  0  0  0  0  0  0  0  0
   -2.7659    0.3314    0.0000 C   0  0  0  0  0  0  0  0  0  0  0  0
   -4.4022   -1.6866    0.0000 C   0  0  0  0  0  0  0  0  0  0  0  0
   -4.6378   -3.1680    0.0000 C   0  0  0  0  0  0  0  0  0  0  0  0
   -3.4727   -4.1128    0.0000 C   0  0  0  0  0  0  0  0  0  0  0  0
   -2.0720   -3.5761    0.0000 C   0  0  0  0  0  0  0  0  0  0  0  0
   -0.9069   -4.5208    0.0000 C   0  0  0  0  0  0  0  0  0  0  0  0
   -1.3652    0.8681    0.0000 O   0  0  0  0  0  0  0  0  0  0  0  0
   -1.1296    2.3494    0.0000 C   0  0  0  0  0  0  0  0  0  0  0  0
   -2.2947    3.2942    0.0000 C   0  0  0  0  0  0  0  0  0  0  0  0
   -3.6955    2.7575    0.0000 C   0  0  0  0  0  0  0  0  0  0  0  0
   -2.0591    4.7755    0.0000 C   0  0  0  0  0  0  0  0  0  0  0  0
   -0.6584    5.3122    0.0000 C   0  0  0  0  0  0  0  0  0  0  0  0
    0.5067    4.3675    0.0000 C   0  0  0  0  0  0  0  0  0  0  0  0
    0.2711    2.8861    0.0000 C   0  0  0  0  0  0  0  0  0  0  0  0
    1.4362    1.9414    0.0000 C   0  0  0  0  0  0  0  0  0  0  0  0
  1  2  1  0
  2  3  2  0
  3  4  1  0
  4  5  2  0
  5  6  1  0
  6  7  2  0
  7  8  1  0
  3  9  1  0
  9 10  1  0
 10 11  1  0
 11 12  1  0
 12 13  2  0
 13 14  1  0
 13 15  1  0
 15 16  2  0
 16 17  1  0
 17 18  2  0
 18 19  1  0
 10 20  1  0
 20 21  1  0
 21 22  2  0
 22 23  1  0
 22 24  1  0
 24 25  2  0
 25 26  1  0
 26 27  2  0
 27 28  1  0
  7  2  1  0
 18 12  1  0
 27 21  1  0
M  END
>  <linear_selectivity>  (616) 
81

>  <denticity>  (616) 
1

>  <ligand_class>  (616) 
phosphite

$$$$
P(O-2,6-xylyl)3_90C_toluene
     RDKit          2D

 28 30  0  0  0  0  0  0  0  0999 V2000
    4.0020    1.5333    0.0000 C   0  0  0  0  0  0  0  0  0  0  0  0
    3.7664    0.0519    0.0000 C   0  0  0  0  0  0  0  0  0  0  0  0
    2.3657   -0.4847    0.0000 C   0  0  0  0  0  0  0  0  0  0  0  0
    2.1301   -1.9661    0.0000 C   0  0  0  0  0  0  0  0  0  0  0  0
    3.2953   -2.9108    0.0000 C   0  0  0  0  0  0  0  0  0  0  0  0
    4.6960   -2.3742    0.0000 C   0  0  0  0  0  0  0  0  0  0  0  0
    4.9316   -0.8928    0.0000 C   0  0  0  0  0  0  0  0  0  0  0  0
    6.3323   -0.3561    0.0000 C   0  0  0  0  0  0  0  0  0  0  0  0
    1.2006    0.4600    0.0000 O   0  0  0  0  0  0  0  0  0  0  0  0
   -0.2001   -0.0767    0.0000 P   0  0  0  0  0  0  0  0  0  0  0  0
   -0.4357   -1.5580    0.0000 O   0  0  0  0  0  0  0  0  0  0  0  0
   -1.8364   -2.0947    0.0000 C   0  0  0  0  0  0  0  0  0  0  0  0
   -3.0015   -1.1500    0.0000 C   0  0  0  0  0  0  0  0  0  0  0  0
   -2.7659    0.3314    0.0000 C   0  0  0  0  0  0  0  0  0  0  0  0
   -4.4022   -1.6866    0.0000 C   0  0  0  0  0  0  0  0  0  0  0  0
   -4.6378   -3.1680    0.0000 C   0  0  0  0  0  0  0  0  0  0  0  0
   -3.4727   -4.1128    0.0000 C   0  0  0  0  0  0  0  0  0  0  0  0
   -2.0720   -3.5761    0.0000 C   0  0  0  0  0  0  0  0  0  0  0  0
   -0.9069   -4.5208    0.0000 C   0  0  0  0  0  0  0  0  0  0  0  0
   -1.3652    0.8681    0.0000 O   0  0  0  0  0  0  0  0  0  0  0  0
   -1.1296    2.3494    0.0000 C   0  0  0  0  0  0  0  0  0  0  0  0
   -2.2947    3.2942    0.0000 C   0  0  0  0  0  0  0  0  0  0  0  0
   -3.6955    2.7575    0.0000 C   0  0  0  0  0  0  0  0  0  0  0  0
   -2.0591    4.7755    0.0000 C   0  0  0  0  0  0  0  0  0  0  0  0
   -0.6584    5.3122    0.0000 C   0  0  0  0  0  0  0  0  0  0  0  0
    0.5067    4.3675    0.0000 C   0  0  0  0  0  0  0  0  0  0  0  0
    0.2711    2.8861    0.0000 C   0  0  0  0  0  0  0  0  0  0  0  0
    1.4362    1.9414    0.0000 C   0  0  0  0  0  0  0  0  0  0  0  0
  1  2  1  0
  2  3  2  0
  3  4  1  0
  4  5  2  0
  5  6  1  0
  6  7  2  0
  7  8  1  0
  3  9  1  0
  9 10  1  0
 10 11  1  0
 11 12  1  0
 12 13  2  0
 13 14  1  0
 13 15  1  0
 15 16  2  0
 16 17  1  0
 17 18  2  0
 18 19  1  0
 10 20  1  0
 20 21  1  0
 21 22  2  0
 22 23  1  0
 22 24  1  0
 24 25  2  0
 25 26  1  0
 26 27  2  0
 27 28  1  0
  7  2  1  0
 18 12  1  0
 27 21  1  0
M  END
>  <linear_selectivity>  (617) 
75

>  <denticity>  (617) 
1

>  <ligand_class>  (617) 
phosphite

$$$$
P(O-2,6-xylyl)3_90C_dioxane
     RDKit          2D

 28 30  0  0  0  0  0  0  0  0999 V2000
    4.0020    1.5333    0.0000 C   0  0  0  0  0  0  0  0  0  0  0  0
    3.7664    0.0519    0.0000 C   0  0  0  0  0  0  0  0  0  0  0  0
    2.3657   -0.4847    0.0000 C   0  0  0  0  0  0  0  0  0  0  0  0
    2.1301   -1.9661    0.0000 C   0  0  0  0  0  0  0  0  0  0  0  0
    3.2953   -2.9108    0.0000 C   0  0  0  0  0  0  0  0  0  0  0  0
    4.6960   -2.3742    0.0000 C   0  0  0  0  0  0  0  0  0  0  0  0
    4.9316   -0.8928    0.0000 C   0  0  0  0  0  0  0  0  0  0  0  0
    6.3323   -0.3561    0.0000 C   0  0  0  0  0  0  0  0  0  0  0  0
    1.2006    0.4600    0.0000 O   0  0  0  0  0  0  0  0  0  0  0  0
   -0.2001   -0.0767    0.0000 P   0  0  0  0  0  0  0  0  0  0  0  0
   -0.4357   -1.5580    0.0000 O   0  0  0  0  0  0  0  0  0  0  0  0
   -1.8364   -2.0947    0.0000 C   0  0  0  0  0  0  0  0  0  0  0  0
   -3.0015   -1.1500    0.0000 C   0  0  0  0  0  0  0  0  0  0  0  0
   -2.7659    0.3314    0.0000 C   0  0  0  0  0  0  0  0  0  0  0  0
   -4.4022   -1.6866    0.0000 C   0  0  0  0  0  0  0  0  0  0  0  0
   -4.6378   -3.1680    0.0000 C   0  0  0  0  0  0  0  0  0  0  0  0
   -3.4727   -4.1128    0.0000 C   0  0  0  0  0  0  0  0  0  0  0  0
   -2.0720   -3.5761    0.0000 C   0  0  0  0  0  0  0  0  0  0  0  0
   -0.9069   -4.5208    0.0000 C   0  0  0  0  0  0  0  0  0  0  0  0
   -1.3652    0.8681    0.0000 O   0  0  0  0  0  0  0  0  0  0  0  0
   -1.1296    2.3494    0.0000 C   0  0  0  0  0  0  0  0  0  0  0  0
   -2.2947    3.2942    0.0000 C   0  0  0  0  0  0  0  0  0  0  0  0
   -3.6955    2.7575    0.0000 C   0  0  0  0  0  0  0  0  0  0  0  0
   -2.0591    4.7755    0.0000 C   0  0  0  0  0  0  0  0  0  0  0  0
   -0.6584    5.3122    0.0000 C   0  0  0  0  0  0  0  0  0  0  0  0
    0.5067    4.3675    0.0000 C   0  0  0  0  0  0  0  0  0  0  0  0
    0.2711    2.8861    0.0000 C   0  0  0  0  0  0  0  0  0  0  0  0
    1.4362    1.9414    0.0000 C   0  0  0  0  0  0  0  0  0  0  0  0
  1  2  1  0
  2  3  2  0
  3  4  1  0
  4  5  2  0
  5  6  1  0
  6  7  2  0
  7  8  1  0
  3  9  1  0
  9 10  1  0
 10 11  1  0
 11 12  1  0
 12 13  2  0
 13 14  1  0
 13 15  1  0
 15 16  2  0
 16 17  1  0
 17 18  2  0
 18 19  1  0
 10 20  1  0
 20 21  1  0
 21 22  2  0
 22 23  1  0
 22 24  1  0
 24 25  2  0
 25 26  1  0
 26 27  2  0
 27 28  1  0
  7  2  1  0
 18 12  1  0
 27 21  1  0
M  END
>  <linear_selectivity>  (618) 
74

>  <denticity>  (618) 
1

>  <ligand_class>  (618) 
phosphite

$$$$
P(O-2,6-xylyl)3_90C_hexane
     RDKit          2D

 28 30  0  0  0  0  0  0  0  0999 V2000
    4.0020    1.5333    0.0000 C   0  0  0  0  0  0  0  0  0  0  0  0
    3.7664    0.0519    0.0000 C   0  0  0  0  0  0  0  0  0  0  0  0
    2.3657   -0.4847    0.0000 C   0  0  0  0  0  0  0  0  0  0  0  0
    2.1301   -1.9661    0.0000 C   0  0  0  0  0  0  0  0  0  0  0  0
    3.2953   -2.9108    0.0000 C   0  0  0  0  0  0  0  0  0  0  0  0
    4.6960   -2.3742    0.0000 C   0  0  0  0  0  0  0  0  0  0  0  0
    4.9316   -0.8928    0.0000 C   0  0  0  0  0  0  0  0  0  0  0  0
    6.3323   -0.3561    0.0000 C   0  0  0  0  0  0  0  0  0  0  0  0
    1.2006    0.4600    0.0000 O   0  0  0  0  0  0  0  0  0  0  0  0
   -0.2001   -0.0767    0.0000 P   0  0  0  0  0  0  0  0  0  0  0  0
   -0.4357   -1.5580    0.0000 O   0  0  0  0  0  0  0  0  0  0  0  0
   -1.8364   -2.0947    0.0000 C   0  0  0  0  0  0  0  0  0  0  0  0
   -3.0015   -1.1500    0.0000 C   0  0  0  0  0  0  0  0  0  0  0  0
   -2.7659    0.3314    0.0000 C   0  0  0  0  0  0  0  0  0  0  0  0
   -4.4022   -1.6866    0.0000 C   0  0  0  0  0  0  0  0  0  0  0  0
   -4.6378   -3.1680    0.0000 C   0  0  0  0  0  0  0  0  0  0  0  0
   -3.4727   -4.1128    0.0000 C   0  0  0  0  0  0  0  0  0  0  0  0
   -2.0720   -3.5761    0.0000 C   0  0  0  0  0  0  0  0  0  0  0  0
   -0.9069   -4.5208    0.0000 C   0  0  0  0  0  0  0  0  0  0  0  0
   -1.3652    0.8681    0.0000 O   0  0  0  0  0  0  0  0  0  0  0  0
   -1.1296    2.3494    0.0000 C   0  0  0  0  0  0  0  0  0  0  0  0
   -2.2947    3.2942    0.0000 C   0  0  0  0  0  0  0  0  0  0  0  0
   -3.6955    2.7575    0.0000 C   0  0  0  0  0  0  0  0  0  0  0  0
   -2.0591    4.7755    0.0000 C   0  0  0  0  0  0  0  0  0  0  0  0
   -0.6584    5.3122    0.0000 C   0  0  0  0  0  0  0  0  0  0  0  0
    0.5067    4.3675    0.0000 C   0  0  0  0  0  0  0  0  0  0  0  0
    0.2711    2.8861    0.0000 C   0  0  0  0  0  0  0  0  0  0  0  0
    1.4362    1.9414    0.0000 C   0  0  0  0  0  0  0  0  0  0  0  0
  1  2  1  0
  2  3  2  0
  3  4  1  0
  4  5  2  0
  5  6  1  0
  6  7  2  0
  7  8  1  0
  3  9  1  0
  9 10  1  0
 10 11  1  0
 11 12  1  0
 12 13  2  0
 13 14  1  0
 13 15  1  0
 15 16  2  0
 16 17  1  0
 17 18  2  0
 18 19  1  0
 10 20  1  0
 20 21  1  0
 21 22  2  0
 22 23  1  0
 22 24  1  0
 24 25  2  0
 25 26  1  0
 26 27  2  0
 27 28  1  0
  7  2  1  0
 18 12  1  0
 27 21  1  0
M  END
>  <linear_selectivity>  (619) 
83

>  <denticity>  (619) 
1

>  <ligand_class>  (619) 
phosphite

$$$$
P(O-2,6-xylyl)3_90C_benzene
     RDKit          2D

 28 30  0  0  0  0  0  0  0  0999 V2000
    4.0020    1.5333    0.0000 C   0  0  0  0  0  0  0  0  0  0  0  0
    3.7664    0.0519    0.0000 C   0  0  0  0  0  0  0  0  0  0  0  0
    2.3657   -0.4847    0.0000 C   0  0  0  0  0  0  0  0  0  0  0  0
    2.1301   -1.9661    0.0000 C   0  0  0  0  0  0  0  0  0  0  0  0
    3.2953   -2.9108    0.0000 C   0  0  0  0  0  0  0  0  0  0  0  0
    4.6960   -2.3742    0.0000 C   0  0  0  0  0  0  0  0  0  0  0  0
    4.9316   -0.8928    0.0000 C   0  0  0  0  0  0  0  0  0  0  0  0
    6.3323   -0.3561    0.0000 C   0  0  0  0  0  0  0  0  0  0  0  0
    1.2006    0.4600    0.0000 O   0  0  0  0  0  0  0  0  0  0  0  0
   -0.2001   -0.0767    0.0000 P   0  0  0  0  0  0  0  0  0  0  0  0
   -0.4357   -1.5580    0.0000 O   0  0  0  0  0  0  0  0  0  0  0  0
   -1.8364   -2.0947    0.0000 C   0  0  0  0  0  0  0  0  0  0  0  0
   -3.0015   -1.1500    0.0000 C   0  0  0  0  0  0  0  0  0  0  0  0
   -2.7659    0.3314    0.0000 C   0  0  0  0  0  0  0  0  0  0  0  0
   -4.4022   -1.6866    0.0000 C   0  0  0  0  0  0  0  0  0  0  0  0
   -4.6378   -3.1680    0.0000 C   0  0  0  0  0  0  0  0  0  0  0  0
   -3.4727   -4.1128    0.0000 C   0  0  0  0  0  0  0  0  0  0  0  0
   -2.0720   -3.5761    0.0000 C   0  0  0  0  0  0  0  0  0  0  0  0
   -0.9069   -4.5208    0.0000 C   0  0  0  0  0  0  0  0  0  0  0  0
   -1.3652    0.8681    0.0000 O   0  0  0  0  0  0  0  0  0  0  0  0
   -1.1296    2.3494    0.0000 C   0  0  0  0  0  0  0  0  0  0  0  0
   -2.2947    3.2942    0.0000 C   0  0  0  0  0  0  0  0  0  0  0  0
   -3.6955    2.7575    0.0000 C   0  0  0  0  0  0  0  0  0  0  0  0
   -2.0591    4.7755    0.0000 C   0  0  0  0  0  0  0  0  0  0  0  0
   -0.6584    5.3122    0.0000 C   0  0  0  0  0  0  0  0  0  0  0  0
    0.5067    4.3675    0.0000 C   0  0  0  0  0  0  0  0  0  0  0  0
    0.2711    2.8861    0.0000 C   0  0  0  0  0  0  0  0  0  0  0  0
    1.4362    1.9414    0.0000 C   0  0  0  0  0  0  0  0  0  0  0  0
  1  2  1  0
  2  3  2  0
  3  4  1  0
  4  5  2  0
  5  6  1  0
  6  7  2  0
  7  8  1  0
  3  9  1  0
  9 10  1  0
 10 11  1  0
 11 12  1  0
 12 13  2  0
 13 14  1  0
 13 15  1  0
 15 16  2  0
 16 17  1  0
 17 18  2  0
 18 19  1  0
 10 20  1  0
 20 21  1  0
 21 22  2  0
 22 23  1  0
 22 24  1  0
 24 25  2  0
 25 26  1  0
 26 27  2  0
 27 28  1  0
  7  2  1  0
 18 12  1  0
 27 21  1  0
M  END
>  <linear_selectivity>  (620) 
82

>  <denticity>  (620) 
1

>  <ligand_class>  (620) 
phosphite

$$$$
P(O-2,6-xylyl)3_90C_xylene
     RDKit          2D

 28 30  0  0  0  0  0  0  0  0999 V2000
    4.0020    1.5333    0.0000 C   0  0  0  0  0  0  0  0  0  0  0  0
    3.7664    0.0519    0.0000 C   0  0  0  0  0  0  0  0  0  0  0  0
    2.3657   -0.4847    0.0000 C   0  0  0  0  0  0  0  0  0  0  0  0
    2.1301   -1.9661    0.0000 C   0  0  0  0  0  0  0  0  0  0  0  0
    3.2953   -2.9108    0.0000 C   0  0  0  0  0  0  0  0  0  0  0  0
    4.6960   -2.3742    0.0000 C   0  0  0  0  0  0  0  0  0  0  0  0
    4.9316   -0.8928    0.0000 C   0  0  0  0  0  0  0  0  0  0  0  0
    6.3323   -0.3561    0.0000 C   0  0  0  0  0  0  0  0  0  0  0  0
    1.2006    0.4600    0.0000 O   0  0  0  0  0  0  0  0  0  0  0  0
   -0.2001   -0.0767    0.0000 P   0  0  0  0  0  0  0  0  0  0  0  0
   -0.4357   -1.5580    0.0000 O   0  0  0  0  0  0  0  0  0  0  0  0
   -1.8364   -2.0947    0.0000 C   0  0  0  0  0  0  0  0  0  0  0  0
   -3.0015   -1.1500    0.0000 C   0  0  0  0  0  0  0  0  0  0  0  0
   -2.7659    0.3314    0.0000 C   0  0  0  0  0  0  0  0  0  0  0  0
   -4.4022   -1.6866    0.0000 C   0  0  0  0  0  0  0  0  0  0  0  0
   -4.6378   -3.1680    0.0000 C   0  0  0  0  0  0  0  0  0  0  0  0
   -3.4727   -4.1128    0.0000 C   0  0  0  0  0  0  0  0  0  0  0  0
   -2.0720   -3.5761    0.0000 C   0  0  0  0  0  0  0  0  0  0  0  0
   -0.9069   -4.5208    0.0000 C   0  0  0  0  0  0  0  0  0  0  0  0
   -1.3652    0.8681    0.0000 O   0  0  0  0  0  0  0  0  0  0  0  0
   -1.1296    2.3494    0.0000 C   0  0  0  0  0  0  0  0  0  0  0  0
   -2.2947    3.2942    0.0000 C   0  0  0  0  0  0  0  0  0  0  0  0
   -3.6955    2.7575    0.0000 C   0  0  0  0  0  0  0  0  0  0  0  0
   -2.0591    4.7755    0.0000 C   0  0  0  0  0  0  0  0  0  0  0  0
   -0.6584    5.3122    0.0000 C   0  0  0  0  0  0  0  0  0  0  0  0
    0.5067    4.3675    0.0000 C   0  0  0  0  0  0  0  0  0  0  0  0
    0.2711    2.8861    0.0000 C   0  0  0  0  0  0  0  0  0  0  0  0
    1.4362    1.9414    0.0000 C   0  0  0  0  0  0  0  0  0  0  0  0
  1  2  1  0
  2  3  2  0
  3  4  1  0
  4  5  2  0
  5  6  1  0
  6  7  2  0
  7  8  1  0
  3  9  1  0
  9 10  1  0
 10 11  1  0
 11 12  1  0
 12 13  2  0
 13 14  1  0
 13 15  1  0
 15 16  2  0
 16 17  1  0
 17 18  2  0
 18 19  1  0
 10 20  1  0
 20 21  1  0
 21 22  2  0
 22 23  1  0
 22 24  1  0
 24 25  2  0
 25 26  1  0
 26 27  2  0
 27 28  1  0
  7  2  1  0
 18 12  1  0
 27 21  1  0
M  END
>  <linear_selectivity>  (621) 
83

>  <denticity>  (621) 
1

>  <ligand_class>  (621) 
phosphite

$$$$
P(O-2,6-xylyl)3_100C_toluene
     RDKit          2D

 28 30  0  0  0  0  0  0  0  0999 V2000
    4.0020    1.5333    0.0000 C   0  0  0  0  0  0  0  0  0  0  0  0
    3.7664    0.0519    0.0000 C   0  0  0  0  0  0  0  0  0  0  0  0
    2.3657   -0.4847    0.0000 C   0  0  0  0  0  0  0  0  0  0  0  0
    2.1301   -1.9661    0.0000 C   0  0  0  0  0  0  0  0  0  0  0  0
    3.2953   -2.9108    0.0000 C   0  0  0  0  0  0  0  0  0  0  0  0
    4.6960   -2.3742    0.0000 C   0  0  0  0  0  0  0  0  0  0  0  0
    4.9316   -0.8928    0.0000 C   0  0  0  0  0  0  0  0  0  0  0  0
    6.3323   -0.3561    0.0000 C   0  0  0  0  0  0  0  0  0  0  0  0
    1.2006    0.4600    0.0000 O   0  0  0  0  0  0  0  0  0  0  0  0
   -0.2001   -0.0767    0.0000 P   0  0  0  0  0  0  0  0  0  0  0  0
   -0.4357   -1.5580    0.0000 O   0  0  0  0  0  0  0  0  0  0  0  0
   -1.8364   -2.0947    0.0000 C   0  0  0  0  0  0  0  0  0  0  0  0
   -3.0015   -1.1500    0.0000 C   0  0  0  0  0  0  0  0  0  0  0  0
   -2.7659    0.3314    0.0000 C   0  0  0  0  0  0  0  0  0  0  0  0
   -4.4022   -1.6866    0.0000 C   0  0  0  0  0  0  0  0  0  0  0  0
   -4.6378   -3.1680    0.0000 C   0  0  0  0  0  0  0  0  0  0  0  0
   -3.4727   -4.1128    0.0000 C   0  0  0  0  0  0  0  0  0  0  0  0
   -2.0720   -3.5761    0.0000 C   0  0  0  0  0  0  0  0  0  0  0  0
   -0.9069   -4.5208    0.0000 C   0  0  0  0  0  0  0  0  0  0  0  0
   -1.3652    0.8681    0.0000 O   0  0  0  0  0  0  0  0  0  0  0  0
   -1.1296    2.3494    0.0000 C   0  0  0  0  0  0  0  0  0  0  0  0
   -2.2947    3.2942    0.0000 C   0  0  0  0  0  0  0  0  0  0  0  0
   -3.6955    2.7575    0.0000 C   0  0  0  0  0  0  0  0  0  0  0  0
   -2.0591    4.7755    0.0000 C   0  0  0  0  0  0  0  0  0  0  0  0
   -0.6584    5.3122    0.0000 C   0  0  0  0  0  0  0  0  0  0  0  0
    0.5067    4.3675    0.0000 C   0  0  0  0  0  0  0  0  0  0  0  0
    0.2711    2.8861    0.0000 C   0  0  0  0  0  0  0  0  0  0  0  0
    1.4362    1.9414    0.0000 C   0  0  0  0  0  0  0  0  0  0  0  0
  1  2  1  0
  2  3  2  0
  3  4  1  0
  4  5  2  0
  5  6  1  0
  6  7  2  0
  7  8  1  0
  3  9  1  0
  9 10  1  0
 10 11  1  0
 11 12  1  0
 12 13  2  0
 13 14  1  0
 13 15  1  0
 15 16  2  0
 16 17  1  0
 17 18  2  0
 18 19  1  0
 10 20  1  0
 20 21  1  0
 21 22  2  0
 22 23  1  0
 22 24  1  0
 24 25  2  0
 25 26  1  0
 26 27  2  0
 27 28  1  0
  7  2  1  0
 18 12  1  0
 27 21  1  0
M  END
>  <linear_selectivity>  (622) 
76

>  <denticity>  (622) 
1

>  <ligand_class>  (622) 
phosphite

$$$$
P(O-2,6-xylyl)3_100C_THF
     RDKit          2D

 28 30  0  0  0  0  0  0  0  0999 V2000
    4.0020    1.5333    0.0000 C   0  0  0  0  0  0  0  0  0  0  0  0
    3.7664    0.0519    0.0000 C   0  0  0  0  0  0  0  0  0  0  0  0
    2.3657   -0.4847    0.0000 C   0  0  0  0  0  0  0  0  0  0  0  0
    2.1301   -1.9661    0.0000 C   0  0  0  0  0  0  0  0  0  0  0  0
    3.2953   -2.9108    0.0000 C   0  0  0  0  0  0  0  0  0  0  0  0
    4.6960   -2.3742    0.0000 C   0  0  0  0  0  0  0  0  0  0  0  0
    4.9316   -0.8928    0.0000 C   0  0  0  0  0  0  0  0  0  0  0  0
    6.3323   -0.3561    0.0000 C   0  0  0  0  0  0  0  0  0  0  0  0
    1.2006    0.4600    0.0000 O   0  0  0  0  0  0  0  0  0  0  0  0
   -0.2001   -0.0767    0.0000 P   0  0  0  0  0  0  0  0  0  0  0  0
   -0.4357   -1.5580    0.0000 O   0  0  0  0  0  0  0  0  0  0  0  0
   -1.8364   -2.0947    0.0000 C   0  0  0  0  0  0  0  0  0  0  0  0
   -3.0015   -1.1500    0.0000 C   0  0  0  0  0  0  0  0  0  0  0  0
   -2.7659    0.3314    0.0000 C   0  0  0  0  0  0  0  0  0  0  0  0
   -4.4022   -1.6866    0.0000 C   0  0  0  0  0  0  0  0  0  0  0  0
   -4.6378   -3.1680    0.0000 C   0  0  0  0  0  0  0  0  0  0  0  0
   -3.4727   -4.1128    0.0000 C   0  0  0  0  0  0  0  0  0  0  0  0
   -2.0720   -3.5761    0.0000 C   0  0  0  0  0  0  0  0  0  0  0  0
   -0.9069   -4.5208    0.0000 C   0  0  0  0  0  0  0  0  0  0  0  0
   -1.3652    0.8681    0.0000 O   0  0  0  0  0  0  0  0  0  0  0  0
   -1.1296    2.3494    0.0000 C   0  0  0  0  0  0  0  0  0  0  0  0
   -2.2947    3.2942    0.0000 C   0  0  0  0  0  0  0  0  0  0  0  0
   -3.6955    2.7575    0.0000 C   0  0  0  0  0  0  0  0  0  0  0  0
   -2.0591    4.7755    0.0000 C   0  0  0  0  0  0  0  0  0  0  0  0
   -0.6584    5.3122    0.0000 C   0  0  0  0  0  0  0  0  0  0  0  0
    0.5067    4.3675    0.0000 C   0  0  0  0  0  0  0  0  0  0  0  0
    0.2711    2.8861    0.0000 C   0  0  0  0  0  0  0  0  0  0  0  0
    1.4362    1.9414    0.0000 C   0  0  0  0  0  0  0  0  0  0  0  0
  1  2  1  0
  2  3  2  0
  3  4  1  0
  4  5  2  0
  5  6  1  0
  6  7  2  0
  7  8  1  0
  3  9  1  0
  9 10  1  0
 10 11  1  0
 11 12  1  0
 12 13  2  0
 13 14  1  0
 13 15  1  0
 15 16  2  0
 16 17  1  0
 17 18  2  0
 18 19  1  0
 10 20  1  0
 20 21  1  0
 21 22  2  0
 22 23  1  0
 22 24  1  0
 24 25  2  0
 25 26  1  0
 26 27  2  0
 27 28  1  0
  7  2  1  0
 18 12  1  0
 27 21  1  0
M  END
>  <linear_selectivity>  (623) 
68

>  <denticity>  (623) 
1

>  <ligand_class>  (623) 
phosphite

$$$$
P(O-2,6-xylyl)3_100C_dioxane
     RDKit          2D

 28 30  0  0  0  0  0  0  0  0999 V2000
    4.0020    1.5333    0.0000 C   0  0  0  0  0  0  0  0  0  0  0  0
    3.7664    0.0519    0.0000 C   0  0  0  0  0  0  0  0  0  0  0  0
    2.3657   -0.4847    0.0000 C   0  0  0  0  0  0  0  0  0  0  0  0
    2.1301   -1.9661    0.0000 C   0  0  0  0  0  0  0  0  0  0  0  0
    3.2953   -2.9108    0.0000 C   0  0  0  0  0  0  0  0  0  0  0  0
    4.6960   -2.3742    0.0000 C   0  0  0  0  0  0  0  0  0  0  0  0
    4.9316   -0.8928    0.0000 C   0  0  0  0  0  0  0  0  0  0  0  0
    6.3323   -0.3561    0.0000 C   0  0  0  0  0  0  0  0  0  0  0  0
    1.2006    0.4600    0.0000 O   0  0  0  0  0  0  0  0  0  0  0  0
   -0.2001   -0.0767    0.0000 P   0  0  0  0  0  0  0  0  0  0  0  0
   -0.4357   -1.5580    0.0000 O   0  0  0  0  0  0  0  0  0  0  0  0
   -1.8364   -2.0947    0.0000 C   0  0  0  0  0  0  0  0  0  0  0  0
   -3.0015   -1.1500    0.0000 C   0  0  0  0  0  0  0  0  0  0  0  0
   -2.7659    0.3314    0.0000 C   0  0  0  0  0  0  0  0  0  0  0  0
   -4.4022   -1.6866    0.0000 C   0  0  0  0  0  0  0  0  0  0  0  0
   -4.6378   -3.1680    0.0000 C   0  0  0  0  0  0  0  0  0  0  0  0
   -3.4727   -4.1128    0.0000 C   0  0  0  0  0  0  0  0  0  0  0  0
   -2.0720   -3.5761    0.0000 C   0  0  0  0  0  0  0  0  0  0  0  0
   -0.9069   -4.5208    0.0000 C   0  0  0  0  0  0  0  0  0  0  0  0
   -1.3652    0.8681    0.0000 O   0  0  0  0  0  0  0  0  0  0  0  0
   -1.1296    2.3494    0.0000 C   0  0  0  0  0  0  0  0  0  0  0  0
   -2.2947    3.2942    0.0000 C   0  0  0  0  0  0  0  0  0  0  0  0
   -3.6955    2.7575    0.0000 C   0  0  0  0  0  0  0  0  0  0  0  0
   -2.0591    4.7755    0.0000 C   0  0  0  0  0  0  0  0  0  0  0  0
   -0.6584    5.3122    0.0000 C   0  0  0  0  0  0  0  0  0  0  0  0
    0.5067    4.3675    0.0000 C   0  0  0  0  0  0  0  0  0  0  0  0
    0.2711    2.8861    0.0000 C   0  0  0  0  0  0  0  0  0  0  0  0
    1.4362    1.9414    0.0000 C   0  0  0  0  0  0  0  0  0  0  0  0
  1  2  1  0
  2  3  2  0
  3  4  1  0
  4  5  2  0
  5  6  1  0
  6  7  2  0
  7  8  1  0
  3  9  1  0
  9 10  1  0
 10 11  1  0
 11 12  1  0
 12 13  2  0
 13 14  1  0
 13 15  1  0
 15 16  2  0
 16 17  1  0
 17 18  2  0
 18 19  1  0
 10 20  1  0
 20 21  1  0
 21 22  2  0
 22 23  1  0
 22 24  1  0
 24 25  2  0
 25 26  1  0
 26 27  2  0
 27 28  1  0
  7  2  1  0
 18 12  1  0
 27 21  1  0
M  END
>  <linear_selectivity>  (624) 
73

>  <denticity>  (624) 
1

>  <ligand_class>  (624) 
phosphite

$$$$
P(O-2,6-xylyl)3_100C_hexane
     RDKit          2D

 28 30  0  0  0  0  0  0  0  0999 V2000
    4.0020    1.5333    0.0000 C   0  0  0  0  0  0  0  0  0  0  0  0
    3.7664    0.0519    0.0000 C   0  0  0  0  0  0  0  0  0  0  0  0
    2.3657   -0.4847    0.0000 C   0  0  0  0  0  0  0  0  0  0  0  0
    2.1301   -1.9661    0.0000 C   0  0  0  0  0  0  0  0  0  0  0  0
    3.2953   -2.9108    0.0000 C   0  0  0  0  0  0  0  0  0  0  0  0
    4.6960   -2.3742    0.0000 C   0  0  0  0  0  0  0  0  0  0  0  0
    4.9316   -0.8928    0.0000 C   0  0  0  0  0  0  0  0  0  0  0  0
    6.3323   -0.3561    0.0000 C   0  0  0  0  0  0  0  0  0  0  0  0
    1.2006    0.4600    0.0000 O   0  0  0  0  0  0  0  0  0  0  0  0
   -0.2001   -0.0767    0.0000 P   0  0  0  0  0  0  0  0  0  0  0  0
   -0.4357   -1.5580    0.0000 O   0  0  0  0  0  0  0  0  0  0  0  0
   -1.8364   -2.0947    0.0000 C   0  0  0  0  0  0  0  0  0  0  0  0
   -3.0015   -1.1500    0.0000 C   0  0  0  0  0  0  0  0  0  0  0  0
   -2.7659    0.3314    0.0000 C   0  0  0  0  0  0  0  0  0  0  0  0
   -4.4022   -1.6866    0.0000 C   0  0  0  0  0  0  0  0  0  0  0  0
   -4.6378   -3.1680    0.0000 C   0  0  0  0  0  0  0  0  0  0  0  0
   -3.4727   -4.1128    0.0000 C   0  0  0  0  0  0  0  0  0  0  0  0
   -2.0720   -3.5761    0.0000 C   0  0  0  0  0  0  0  0  0  0  0  0
   -0.9069   -4.5208    0.0000 C   0  0  0  0  0  0  0  0  0  0  0  0
   -1.3652    0.8681    0.0000 O   0  0  0  0  0  0  0  0  0  0  0  0
   -1.1296    2.3494    0.0000 C   0  0  0  0  0  0  0  0  0  0  0  0
   -2.2947    3.2942    0.0000 C   0  0  0  0  0  0  0  0  0  0  0  0
   -3.6955    2.7575    0.0000 C   0  0  0  0  0  0  0  0  0  0  0  0
   -2.0591    4.7755    0.0000 C   0  0  0  0  0  0  0  0  0  0  0  0
   -0.6584    5.3122    0.0000 C   0  0  0  0  0  0  0  0  0  0  0  0
    0.5067    4.3675    0.0000 C   0  0  0  0  0  0  0  0  0  0  0  0
    0.2711    2.8861    0.0000 C   0  0  0  0  0  0  0  0  0  0  0  0
    1.4362    1.9414    0.0000 C   0  0  0  0  0  0  0  0  0  0  0  0
  1  2  1  0
  2  3  2  0
  3  4  1  0
  4  5  2  0
  5  6  1  0
  6  7  2  0
  7  8  1  0
  3  9  1  0
  9 10  1  0
 10 11  1  0
 11 12  1  0
 12 13  2  0
 13 14  1  0
 13 15  1  0
 15 16  2  0
 16 17  1  0
 17 18  2  0
 18 19  1  0
 10 20  1  0
 20 21  1  0
 21 22  2  0
 22 23  1  0
 22 24  1  0
 24 25  2  0
 25 26  1  0
 26 27  2  0
 27 28  1  0
  7  2  1  0
 18 12  1  0
 27 21  1  0
M  END
>  <linear_selectivity>  (625) 
80

>  <denticity>  (625) 
1

>  <ligand_class>  (625) 
phosphite

$$$$
P(O-2,6-xylyl)3_100C_benzene
     RDKit          2D

 28 30  0  0  0  0  0  0  0  0999 V2000
    4.0020    1.5333    0.0000 C   0  0  0  0  0  0  0  0  0  0  0  0
    3.7664    0.0519    0.0000 C   0  0  0  0  0  0  0  0  0  0  0  0
    2.3657   -0.4847    0.0000 C   0  0  0  0  0  0  0  0  0  0  0  0
    2.1301   -1.9661    0.0000 C   0  0  0  0  0  0  0  0  0  0  0  0
    3.2953   -2.9108    0.0000 C   0  0  0  0  0  0  0  0  0  0  0  0
    4.6960   -2.3742    0.0000 C   0  0  0  0  0  0  0  0  0  0  0  0
    4.9316   -0.8928    0.0000 C   0  0  0  0  0  0  0  0  0  0  0  0
    6.3323   -0.3561    0.0000 C   0  0  0  0  0  0  0  0  0  0  0  0
    1.2006    0.4600    0.0000 O   0  0  0  0  0  0  0  0  0  0  0  0
   -0.2001   -0.0767    0.0000 P   0  0  0  0  0  0  0  0  0  0  0  0
   -0.4357   -1.5580    0.0000 O   0  0  0  0  0  0  0  0  0  0  0  0
   -1.8364   -2.0947    0.0000 C   0  0  0  0  0  0  0  0  0  0  0  0
   -3.0015   -1.1500    0.0000 C   0  0  0  0  0  0  0  0  0  0  0  0
   -2.7659    0.3314    0.0000 C   0  0  0  0  0  0  0  0  0  0  0  0
   -4.4022   -1.6866    0.0000 C   0  0  0  0  0  0  0  0  0  0  0  0
   -4.6378   -3.1680    0.0000 C   0  0  0  0  0  0  0  0  0  0  0  0
   -3.4727   -4.1128    0.0000 C   0  0  0  0  0  0  0  0  0  0  0  0
   -2.0720   -3.5761    0.0000 C   0  0  0  0  0  0  0  0  0  0  0  0
   -0.9069   -4.5208    0.0000 C   0  0  0  0  0  0  0  0  0  0  0  0
   -1.3652    0.8681    0.0000 O   0  0  0  0  0  0  0  0  0  0  0  0
   -1.1296    2.3494    0.0000 C   0  0  0  0  0  0  0  0  0  0  0  0
   -2.2947    3.2942    0.0000 C   0  0  0  0  0  0  0  0  0  0  0  0
   -3.6955    2.7575    0.0000 C   0  0  0  0  0  0  0  0  0  0  0  0
   -2.0591    4.7755    0.0000 C   0  0  0  0  0  0  0  0  0  0  0  0
   -0.6584    5.3122    0.0000 C   0  0  0  0  0  0  0  0  0  0  0  0
    0.5067    4.3675    0.0000 C   0  0  0  0  0  0  0  0  0  0  0  0
    0.2711    2.8861    0.0000 C   0  0  0  0  0  0  0  0  0  0  0  0
    1.4362    1.9414    0.0000 C   0  0  0  0  0  0  0  0  0  0  0  0
  1  2  1  0
  2  3  2  0
  3  4  1  0
  4  5  2  0
  5  6  1  0
  6  7  2  0
  7  8  1  0
  3  9  1  0
  9 10  1  0
 10 11  1  0
 11 12  1  0
 12 13  2  0
 13 14  1  0
 13 15  1  0
 15 16  2  0
 16 17  1  0
 17 18  2  0
 18 19  1  0
 10 20  1  0
 20 21  1  0
 21 22  2  0
 22 23  1  0
 22 24  1  0
 24 25  2  0
 25 26  1  0
 26 27  2  0
 27 28  1  0
  7  2  1  0
 18 12  1  0
 27 21  1  0
M  END
>  <linear_selectivity>  (626) 
77

>  <denticity>  (626) 
1

>  <ligand_class>  (626) 
phosphite

$$$$
P(O-2,6-xylyl)3_100C_xylene
     RDKit          2D

 28 30  0  0  0  0  0  0  0  0999 V2000
    4.0020    1.5333    0.0000 C   0  0  0  0  0  0  0  0  0  0  0  0
    3.7664    0.0519    0.0000 C   0  0  0  0  0  0  0  0  0  0  0  0
    2.3657   -0.4847    0.0000 C   0  0  0  0  0  0  0  0  0  0  0  0
    2.1301   -1.9661    0.0000 C   0  0  0  0  0  0  0  0  0  0  0  0
    3.2953   -2.9108    0.0000 C   0  0  0  0  0  0  0  0  0  0  0  0
    4.6960   -2.3742    0.0000 C   0  0  0  0  0  0  0  0  0  0  0  0
    4.9316   -0.8928    0.0000 C   0  0  0  0  0  0  0  0  0  0  0  0
    6.3323   -0.3561    0.0000 C   0  0  0  0  0  0  0  0  0  0  0  0
    1.2006    0.4600    0.0000 O   0  0  0  0  0  0  0  0  0  0  0  0
   -0.2001   -0.0767    0.0000 P   0  0  0  0  0  0  0  0  0  0  0  0
   -0.4357   -1.5580    0.0000 O   0  0  0  0  0  0  0  0  0  0  0  0
   -1.8364   -2.0947    0.0000 C   0  0  0  0  0  0  0  0  0  0  0  0
   -3.0015   -1.1500    0.0000 C   0  0  0  0  0  0  0  0  0  0  0  0
   -2.7659    0.3314    0.0000 C   0  0  0  0  0  0  0  0  0  0  0  0
   -4.4022   -1.6866    0.0000 C   0  0  0  0  0  0  0  0  0  0  0  0
   -4.6378   -3.1680    0.0000 C   0  0  0  0  0  0  0  0  0  0  0  0
   -3.4727   -4.1128    0.0000 C   0  0  0  0  0  0  0  0  0  0  0  0
   -2.0720   -3.5761    0.0000 C   0  0  0  0  0  0  0  0  0  0  0  0
   -0.9069   -4.5208    0.0000 C   0  0  0  0  0  0  0  0  0  0  0  0
   -1.3652    0.8681    0.0000 O   0  0  0  0  0  0  0  0  0  0  0  0
   -1.1296    2.3494    0.0000 C   0  0  0  0  0  0  0  0  0  0  0  0
   -2.2947    3.2942    0.0000 C   0  0  0  0  0  0  0  0  0  0  0  0
   -3.6955    2.7575    0.0000 C   0  0  0  0  0  0  0  0  0  0  0  0
   -2.0591    4.7755    0.0000 C   0  0  0  0  0  0  0  0  0  0  0  0
   -0.6584    5.3122    0.0000 C   0  0  0  0  0  0  0  0  0  0  0  0
    0.5067    4.3675    0.0000 C   0  0  0  0  0  0  0  0  0  0  0  0
    0.2711    2.8861    0.0000 C   0  0  0  0  0  0  0  0  0  0  0  0
    1.4362    1.9414    0.0000 C   0  0  0  0  0  0  0  0  0  0  0  0
  1  2  1  0
  2  3  2  0
  3  4  1  0
  4  5  2  0
  5  6  1  0
  6  7  2  0
  7  8  1  0
  3  9  1  0
  9 10  1  0
 10 11  1  0
 11 12  1  0
 12 13  2  0
 13 14  1  0
 13 15  1  0
 15 16  2  0
 16 17  1  0
 17 18  2  0
 18 19  1  0
 10 20  1  0
 20 21  1  0
 21 22  2  0
 22 23  1  0
 22 24  1  0
 24 25  2  0
 25 26  1  0
 26 27  2  0
 27 28  1  0
  7  2  1  0
 18 12  1  0
 27 21  1  0
M  END
>  <linear_selectivity>  (627) 
74

>  <denticity>  (627) 
1

>  <ligand_class>  (627) 
phosphite

$$$$
P(O-2,6-xylyl)3_110C_toluene
     RDKit          2D

 28 30  0  0  0  0  0  0  0  0999 V2000
    4.0020    1.5333    0.0000 C   0  0  0  0  0  0  0  0  0  0  0  0
    3.7664    0.0519    0.0000 C   0  0  0  0  0  0  0  0  0  0  0  0
    2.3657   -0.4847    0.0000 C   0  0  0  0  0  0  0  0  0  0  0  0
    2.1301   -1.9661    0.0000 C   0  0  0  0  0  0  0  0  0  0  0  0
    3.2953   -2.9108    0.0000 C   0  0  0  0  0  0  0  0  0  0  0  0
    4.6960   -2.3742    0.0000 C   0  0  0  0  0  0  0  0  0  0  0  0
    4.9316   -0.8928    0.0000 C   0  0  0  0  0  0  0  0  0  0  0  0
    6.3323   -0.3561    0.0000 C   0  0  0  0  0  0  0  0  0  0  0  0
    1.2006    0.4600    0.0000 O   0  0  0  0  0  0  0  0  0  0  0  0
   -0.2001   -0.0767    0.0000 P   0  0  0  0  0  0  0  0  0  0  0  0
   -0.4357   -1.5580    0.0000 O   0  0  0  0  0  0  0  0  0  0  0  0
   -1.8364   -2.0947    0.0000 C   0  0  0  0  0  0  0  0  0  0  0  0
   -3.0015   -1.1500    0.0000 C   0  0  0  0  0  0  0  0  0  0  0  0
   -2.7659    0.3314    0.0000 C   0  0  0  0  0  0  0  0  0  0  0  0
   -4.4022   -1.6866    0.0000 C   0  0  0  0  0  0  0  0  0  0  0  0
   -4.6378   -3.1680    0.0000 C   0  0  0  0  0  0  0  0  0  0  0  0
   -3.4727   -4.1128    0.0000 C   0  0  0  0  0  0  0  0  0  0  0  0
   -2.0720   -3.5761    0.0000 C   0  0  0  0  0  0  0  0  0  0  0  0
   -0.9069   -4.5208    0.0000 C   0  0  0  0  0  0  0  0  0  0  0  0
   -1.3652    0.8681    0.0000 O   0  0  0  0  0  0  0  0  0  0  0  0
   -1.1296    2.3494    0.0000 C   0  0  0  0  0  0  0  0  0  0  0  0
   -2.2947    3.2942    0.0000 C   0  0  0  0  0  0  0  0  0  0  0  0
   -3.6955    2.7575    0.0000 C   0  0  0  0  0  0  0  0  0  0  0  0
   -2.0591    4.7755    0.0000 C   0  0  0  0  0  0  0  0  0  0  0  0
   -0.6584    5.3122    0.0000 C   0  0  0  0  0  0  0  0  0  0  0  0
    0.5067    4.3675    0.0000 C   0  0  0  0  0  0  0  0  0  0  0  0
    0.2711    2.8861    0.0000 C   0  0  0  0  0  0  0  0  0  0  0  0
    1.4362    1.9414    0.0000 C   0  0  0  0  0  0  0  0  0  0  0  0
  1  2  1  0
  2  3  2  0
  3  4  1  0
  4  5  2  0
  5  6  1  0
  6  7  2  0
  7  8  1  0
  3  9  1  0
  9 10  1  0
 10 11  1  0
 11 12  1  0
 12 13  2  0
 13 14  1  0
 13 15  1  0
 15 16  2  0
 16 17  1  0
 17 18  2  0
 18 19  1  0
 10 20  1  0
 20 21  1  0
 21 22  2  0
 22 23  1  0
 22 24  1  0
 24 25  2  0
 25 26  1  0
 26 27  2  0
 27 28  1  0
  7  2  1  0
 18 12  1  0
 27 21  1  0
M  END
>  <linear_selectivity>  (628) 
70

>  <denticity>  (628) 
1

>  <ligand_class>  (628) 
phosphite

$$$$
P(O-2,6-xylyl)3_110C_THF
     RDKit          2D

 28 30  0  0  0  0  0  0  0  0999 V2000
    4.0020    1.5333    0.0000 C   0  0  0  0  0  0  0  0  0  0  0  0
    3.7664    0.0519    0.0000 C   0  0  0  0  0  0  0  0  0  0  0  0
    2.3657   -0.4847    0.0000 C   0  0  0  0  0  0  0  0  0  0  0  0
    2.1301   -1.9661    0.0000 C   0  0  0  0  0  0  0  0  0  0  0  0
    3.2953   -2.9108    0.0000 C   0  0  0  0  0  0  0  0  0  0  0  0
    4.6960   -2.3742    0.0000 C   0  0  0  0  0  0  0  0  0  0  0  0
    4.9316   -0.8928    0.0000 C   0  0  0  0  0  0  0  0  0  0  0  0
    6.3323   -0.3561    0.0000 C   0  0  0  0  0  0  0  0  0  0  0  0
    1.2006    0.4600    0.0000 O   0  0  0  0  0  0  0  0  0  0  0  0
   -0.2001   -0.0767    0.0000 P   0  0  0  0  0  0  0  0  0  0  0  0
   -0.4357   -1.5580    0.0000 O   0  0  0  0  0  0  0  0  0  0  0  0
   -1.8364   -2.0947    0.0000 C   0  0  0  0  0  0  0  0  0  0  0  0
   -3.0015   -1.1500    0.0000 C   0  0  0  0  0  0  0  0  0  0  0  0
   -2.7659    0.3314    0.0000 C   0  0  0  0  0  0  0  0  0  0  0  0
   -4.4022   -1.6866    0.0000 C   0  0  0  0  0  0  0  0  0  0  0  0
   -4.6378   -3.1680    0.0000 C   0  0  0  0  0  0  0  0  0  0  0  0
   -3.4727   -4.1128    0.0000 C   0  0  0  0  0  0  0  0  0  0  0  0
   -2.0720   -3.5761    0.0000 C   0  0  0  0  0  0  0  0  0  0  0  0
   -0.9069   -4.5208    0.0000 C   0  0  0  0  0  0  0  0  0  0  0  0
   -1.3652    0.8681    0.0000 O   0  0  0  0  0  0  0  0  0  0  0  0
   -1.1296    2.3494    0.0000 C   0  0  0  0  0  0  0  0  0  0  0  0
   -2.2947    3.2942    0.0000 C   0  0  0  0  0  0  0  0  0  0  0  0
   -3.6955    2.7575    0.0000 C   0  0  0  0  0  0  0  0  0  0  0  0
   -2.0591    4.7755    0.0000 C   0  0  0  0  0  0  0  0  0  0  0  0
   -0.6584    5.3122    0.0000 C   0  0  0  0  0  0  0  0  0  0  0  0
    0.5067    4.3675    0.0000 C   0  0  0  0  0  0  0  0  0  0  0  0
    0.2711    2.8861    0.0000 C   0  0  0  0  0  0  0  0  0  0  0  0
    1.4362    1.9414    0.0000 C   0  0  0  0  0  0  0  0  0  0  0  0
  1  2  1  0
  2  3  2  0
  3  4  1  0
  4  5  2  0
  5  6  1  0
  6  7  2  0
  7  8  1  0
  3  9  1  0
  9 10  1  0
 10 11  1  0
 11 12  1  0
 12 13  2  0
 13 14  1  0
 13 15  1  0
 15 16  2  0
 16 17  1  0
 17 18  2  0
 18 19  1  0
 10 20  1  0
 20 21  1  0
 21 22  2  0
 22 23  1  0
 22 24  1  0
 24 25  2  0
 25 26  1  0
 26 27  2  0
 27 28  1  0
  7  2  1  0
 18 12  1  0
 27 21  1  0
M  END
>  <linear_selectivity>  (629) 
66

>  <denticity>  (629) 
1

>  <ligand_class>  (629) 
phosphite

$$$$
P(O-2,6-xylyl)3_110C_dioxane
     RDKit          2D

 28 30  0  0  0  0  0  0  0  0999 V2000
    4.0020    1.5333    0.0000 C   0  0  0  0  0  0  0  0  0  0  0  0
    3.7664    0.0519    0.0000 C   0  0  0  0  0  0  0  0  0  0  0  0
    2.3657   -0.4847    0.0000 C   0  0  0  0  0  0  0  0  0  0  0  0
    2.1301   -1.9661    0.0000 C   0  0  0  0  0  0  0  0  0  0  0  0
    3.2953   -2.9108    0.0000 C   0  0  0  0  0  0  0  0  0  0  0  0
    4.6960   -2.3742    0.0000 C   0  0  0  0  0  0  0  0  0  0  0  0
    4.9316   -0.8928    0.0000 C   0  0  0  0  0  0  0  0  0  0  0  0
    6.3323   -0.3561    0.0000 C   0  0  0  0  0  0  0  0  0  0  0  0
    1.2006    0.4600    0.0000 O   0  0  0  0  0  0  0  0  0  0  0  0
   -0.2001   -0.0767    0.0000 P   0  0  0  0  0  0  0  0  0  0  0  0
   -0.4357   -1.5580    0.0000 O   0  0  0  0  0  0  0  0  0  0  0  0
   -1.8364   -2.0947    0.0000 C   0  0  0  0  0  0  0  0  0  0  0  0
   -3.0015   -1.1500    0.0000 C   0  0  0  0  0  0  0  0  0  0  0  0
   -2.7659    0.3314    0.0000 C   0  0  0  0  0  0  0  0  0  0  0  0
   -4.4022   -1.6866    0.0000 C   0  0  0  0  0  0  0  0  0  0  0  0
   -4.6378   -3.1680    0.0000 C   0  0  0  0  0  0  0  0  0  0  0  0
   -3.4727   -4.1128    0.0000 C   0  0  0  0  0  0  0  0  0  0  0  0
   -2.0720   -3.5761    0.0000 C   0  0  0  0  0  0  0  0  0  0  0  0
   -0.9069   -4.5208    0.0000 C   0  0  0  0  0  0  0  0  0  0  0  0
   -1.3652    0.8681    0.0000 O   0  0  0  0  0  0  0  0  0  0  0  0
   -1.1296    2.3494    0.0000 C   0  0  0  0  0  0  0  0  0  0  0  0
   -2.2947    3.2942    0.0000 C   0  0  0  0  0  0  0  0  0  0  0  0
   -3.6955    2.7575    0.0000 C   0  0  0  0  0  0  0  0  0  0  0  0
   -2.0591    4.7755    0.0000 C   0  0  0  0  0  0  0  0  0  0  0  0
   -0.6584    5.3122    0.0000 C   0  0  0  0  0  0  0  0  0  0  0  0
    0.5067    4.3675    0.0000 C   0  0  0  0  0  0  0  0  0  0  0  0
    0.2711    2.8861    0.0000 C   0  0  0  0  0  0  0  0  0  0  0  0
    1.4362    1.9414    0.0000 C   0  0  0  0  0  0  0  0  0  0  0  0
  1  2  1  0
  2  3  2  0
  3  4  1  0
  4  5  2  0
  5  6  1  0
  6  7  2  0
  7  8  1  0
  3  9  1  0
  9 10  1  0
 10 11  1  0
 11 12  1  0
 12 13  2  0
 13 14  1  0
 13 15  1  0
 15 16  2  0
 16 17  1  0
 17 18  2  0
 18 19  1  0
 10 20  1  0
 20 21  1  0
 21 22  2  0
 22 23  1  0
 22 24  1  0
 24 25  2  0
 25 26  1  0
 26 27  2  0
 27 28  1  0
  7  2  1  0
 18 12  1  0
 27 21  1  0
M  END
>  <linear_selectivity>  (630) 
72

>  <denticity>  (630) 
1

>  <ligand_class>  (630) 
phosphite

$$$$
P(O-2,6-xylyl)3_110C_hexane
     RDKit          2D

 28 30  0  0  0  0  0  0  0  0999 V2000
    4.0020    1.5333    0.0000 C   0  0  0  0  0  0  0  0  0  0  0  0
    3.7664    0.0519    0.0000 C   0  0  0  0  0  0  0  0  0  0  0  0
    2.3657   -0.4847    0.0000 C   0  0  0  0  0  0  0  0  0  0  0  0
    2.1301   -1.9661    0.0000 C   0  0  0  0  0  0  0  0  0  0  0  0
    3.2953   -2.9108    0.0000 C   0  0  0  0  0  0  0  0  0  0  0  0
    4.6960   -2.3742    0.0000 C   0  0  0  0  0  0  0  0  0  0  0  0
    4.9316   -0.8928    0.0000 C   0  0  0  0  0  0  0  0  0  0  0  0
    6.3323   -0.3561    0.0000 C   0  0  0  0  0  0  0  0  0  0  0  0
    1.2006    0.4600    0.0000 O   0  0  0  0  0  0  0  0  0  0  0  0
   -0.2001   -0.0767    0.0000 P   0  0  0  0  0  0  0  0  0  0  0  0
   -0.4357   -1.5580    0.0000 O   0  0  0  0  0  0  0  0  0  0  0  0
   -1.8364   -2.0947    0.0000 C   0  0  0  0  0  0  0  0  0  0  0  0
   -3.0015   -1.1500    0.0000 C   0  0  0  0  0  0  0  0  0  0  0  0
   -2.7659    0.3314    0.0000 C   0  0  0  0  0  0  0  0  0  0  0  0
   -4.4022   -1.6866    0.0000 C   0  0  0  0  0  0  0  0  0  0  0  0
   -4.6378   -3.1680    0.0000 C   0  0  0  0  0  0  0  0  0  0  0  0
   -3.4727   -4.1128    0.0000 C   0  0  0  0  0  0  0  0  0  0  0  0
   -2.0720   -3.5761    0.0000 C   0  0  0  0  0  0  0  0  0  0  0  0
   -0.9069   -4.5208    0.0000 C   0  0  0  0  0  0  0  0  0  0  0  0
   -1.3652    0.8681    0.0000 O   0  0  0  0  0  0  0  0  0  0  0  0
   -1.1296    2.3494    0.0000 C   0  0  0  0  0  0  0  0  0  0  0  0
   -2.2947    3.2942    0.0000 C   0  0  0  0  0  0  0  0  0  0  0  0
   -3.6955    2.7575    0.0000 C   0  0  0  0  0  0  0  0  0  0  0  0
   -2.0591    4.7755    0.0000 C   0  0  0  0  0  0  0  0  0  0  0  0
   -0.6584    5.3122    0.0000 C   0  0  0  0  0  0  0  0  0  0  0  0
    0.5067    4.3675    0.0000 C   0  0  0  0  0  0  0  0  0  0  0  0
    0.2711    2.8861    0.0000 C   0  0  0  0  0  0  0  0  0  0  0  0
    1.4362    1.9414    0.0000 C   0  0  0  0  0  0  0  0  0  0  0  0
  1  2  1  0
  2  3  2  0
  3  4  1  0
  4  5  2  0
  5  6  1  0
  6  7  2  0
  7  8  1  0
  3  9  1  0
  9 10  1  0
 10 11  1  0
 11 12  1  0
 12 13  2  0
 13 14  1  0
 13 15  1  0
 15 16  2  0
 16 17  1  0
 17 18  2  0
 18 19  1  0
 10 20  1  0
 20 21  1  0
 21 22  2  0
 22 23  1  0
 22 24  1  0
 24 25  2  0
 25 26  1  0
 26 27  2  0
 27 28  1  0
  7  2  1  0
 18 12  1  0
 27 21  1  0
M  END
>  <linear_selectivity>  (631) 
76

>  <denticity>  (631) 
1

>  <ligand_class>  (631) 
phosphite

$$$$
P(O-2,6-xylyl)3_110C_benzene
     RDKit          2D

 28 30  0  0  0  0  0  0  0  0999 V2000
    4.0020    1.5333    0.0000 C   0  0  0  0  0  0  0  0  0  0  0  0
    3.7664    0.0519    0.0000 C   0  0  0  0  0  0  0  0  0  0  0  0
    2.3657   -0.4847    0.0000 C   0  0  0  0  0  0  0  0  0  0  0  0
    2.1301   -1.9661    0.0000 C   0  0  0  0  0  0  0  0  0  0  0  0
    3.2953   -2.9108    0.0000 C   0  0  0  0  0  0  0  0  0  0  0  0
    4.6960   -2.3742    0.0000 C   0  0  0  0  0  0  0  0  0  0  0  0
    4.9316   -0.8928    0.0000 C   0  0  0  0  0  0  0  0  0  0  0  0
    6.3323   -0.3561    0.0000 C   0  0  0  0  0  0  0  0  0  0  0  0
    1.2006    0.4600    0.0000 O   0  0  0  0  0  0  0  0  0  0  0  0
   -0.2001   -0.0767    0.0000 P   0  0  0  0  0  0  0  0  0  0  0  0
   -0.4357   -1.5580    0.0000 O   0  0  0  0  0  0  0  0  0  0  0  0
   -1.8364   -2.0947    0.0000 C   0  0  0  0  0  0  0  0  0  0  0  0
   -3.0015   -1.1500    0.0000 C   0  0  0  0  0  0  0  0  0  0  0  0
   -2.7659    0.3314    0.0000 C   0  0  0  0  0  0  0  0  0  0  0  0
   -4.4022   -1.6866    0.0000 C   0  0  0  0  0  0  0  0  0  0  0  0
   -4.6378   -3.1680    0.0000 C   0  0  0  0  0  0  0  0  0  0  0  0
   -3.4727   -4.1128    0.0000 C   0  0  0  0  0  0  0  0  0  0  0  0
   -2.0720   -3.5761    0.0000 C   0  0  0  0  0  0  0  0  0  0  0  0
   -0.9069   -4.5208    0.0000 C   0  0  0  0  0  0  0  0  0  0  0  0
   -1.3652    0.8681    0.0000 O   0  0  0  0  0  0  0  0  0  0  0  0
   -1.1296    2.3494    0.0000 C   0  0  0  0  0  0  0  0  0  0  0  0
   -2.2947    3.2942    0.0000 C   0  0  0  0  0  0  0  0  0  0  0  0
   -3.6955    2.7575    0.0000 C   0  0  0  0  0  0  0  0  0  0  0  0
   -2.0591    4.7755    0.0000 C   0  0  0  0  0  0  0  0  0  0  0  0
   -0.6584    5.3122    0.0000 C   0  0  0  0  0  0  0  0  0  0  0  0
    0.5067    4.3675    0.0000 C   0  0  0  0  0  0  0  0  0  0  0  0
    0.2711    2.8861    0.0000 C   0  0  0  0  0  0  0  0  0  0  0  0
    1.4362    1.9414    0.0000 C   0  0  0  0  0  0  0  0  0  0  0  0
  1  2  1  0
  2  3  2  0
  3  4  1  0
  4  5  2  0
  5  6  1  0
  6  7  2  0
  7  8  1  0
  3  9  1  0
  9 10  1  0
 10 11  1  0
 11 12  1  0
 12 13  2  0
 13 14  1  0
 13 15  1  0
 15 16  2  0
 16 17  1  0
 17 18  2  0
 18 19  1  0
 10 20  1  0
 20 21  1  0
 21 22  2  0
 22 23  1  0
 22 24  1  0
 24 25  2  0
 25 26  1  0
 26 27  2  0
 27 28  1  0
  7  2  1  0
 18 12  1  0
 27 21  1  0
M  END
>  <linear_selectivity>  (632) 
72

>  <denticity>  (632) 
1

>  <ligand_class>  (632) 
phosphite

$$$$
P(O-2,6-xylyl)3_110C_xylene
     RDKit          2D

 28 30  0  0  0  0  0  0  0  0999 V2000
    4.0020    1.5333    0.0000 C   0  0  0  0  0  0  0  0  0  0  0  0
    3.7664    0.0519    0.0000 C   0  0  0  0  0  0  0  0  0  0  0  0
    2.3657   -0.4847    0.0000 C   0  0  0  0  0  0  0  0  0  0  0  0
    2.1301   -1.9661    0.0000 C   0  0  0  0  0  0  0  0  0  0  0  0
    3.2953   -2.9108    0.0000 C   0  0  0  0  0  0  0  0  0  0  0  0
    4.6960   -2.3742    0.0000 C   0  0  0  0  0  0  0  0  0  0  0  0
    4.9316   -0.8928    0.0000 C   0  0  0  0  0  0  0  0  0  0  0  0
    6.3323   -0.3561    0.0000 C   0  0  0  0  0  0  0  0  0  0  0  0
    1.2006    0.4600    0.0000 O   0  0  0  0  0  0  0  0  0  0  0  0
   -0.2001   -0.0767    0.0000 P   0  0  0  0  0  0  0  0  0  0  0  0
   -0.4357   -1.5580    0.0000 O   0  0  0  0  0  0  0  0  0  0  0  0
   -1.8364   -2.0947    0.0000 C   0  0  0  0  0  0  0  0  0  0  0  0
   -3.0015   -1.1500    0.0000 C   0  0  0  0  0  0  0  0  0  0  0  0
   -2.7659    0.3314    0.0000 C   0  0  0  0  0  0  0  0  0  0  0  0
   -4.4022   -1.6866    0.0000 C   0  0  0  0  0  0  0  0  0  0  0  0
   -4.6378   -3.1680    0.0000 C   0  0  0  0  0  0  0  0  0  0  0  0
   -3.4727   -4.1128    0.0000 C   0  0  0  0  0  0  0  0  0  0  0  0
   -2.0720   -3.5761    0.0000 C   0  0  0  0  0  0  0  0  0  0  0  0
   -0.9069   -4.5208    0.0000 C   0  0  0  0  0  0  0  0  0  0  0  0
   -1.3652    0.8681    0.0000 O   0  0  0  0  0  0  0  0  0  0  0  0
   -1.1296    2.3494    0.0000 C   0  0  0  0  0  0  0  0  0  0  0  0
   -2.2947    3.2942    0.0000 C   0  0  0  0  0  0  0  0  0  0  0  0
   -3.6955    2.7575    0.0000 C   0  0  0  0  0  0  0  0  0  0  0  0
   -2.0591    4.7755    0.0000 C   0  0  0  0  0  0  0  0  0  0  0  0
   -0.6584    5.3122    0.0000 C   0  0  0  0  0  0  0  0  0  0  0  0
    0.5067    4.3675    0.0000 C   0  0  0  0  0  0  0  0  0  0  0  0
    0.2711    2.8861    0.0000 C   0  0  0  0  0  0  0  0  0  0  0  0
    1.4362    1.9414    0.0000 C   0  0  0  0  0  0  0  0  0  0  0  0
  1  2  1  0
  2  3  2  0
  3  4  1  0
  4  5  2  0
  5  6  1  0
  6  7  2  0
  7  8  1  0
  3  9  1  0
  9 10  1  0
 10 11  1  0
 11 12  1  0
 12 13  2  0
 13 14  1  0
 13 15  1  0
 15 16  2  0
 16 17  1  0
 17 18  2  0
 18 19  1  0
 10 20  1  0
 20 21  1  0
 21 22  2  0
 22 23  1  0
 22 24  1  0
 24 25  2  0
 25 26  1  0
 26 27  2  0
 27 28  1  0
  7  2  1  0
 18 12  1  0
 27 21  1  0
M  END
>  <linear_selectivity>  (633) 
72

>  <denticity>  (633) 
1

>  <ligand_class>  (633) 
phosphite

$$$$
P(O-2,6-xylyl)3_120C_toluene
     RDKit          2D

 28 30  0  0  0  0  0  0  0  0999 V2000
    4.0020    1.5333    0.0000 C   0  0  0  0  0  0  0  0  0  0  0  0
    3.7664    0.0519    0.0000 C   0  0  0  0  0  0  0  0  0  0  0  0
    2.3657   -0.4847    0.0000 C   0  0  0  0  0  0  0  0  0  0  0  0
    2.1301   -1.9661    0.0000 C   0  0  0  0  0  0  0  0  0  0  0  0
    3.2953   -2.9108    0.0000 C   0  0  0  0  0  0  0  0  0  0  0  0
    4.6960   -2.3742    0.0000 C   0  0  0  0  0  0  0  0  0  0  0  0
    4.9316   -0.8928    0.0000 C   0  0  0  0  0  0  0  0  0  0  0  0
    6.3323   -0.3561    0.0000 C   0  0  0  0  0  0  0  0  0  0  0  0
    1.2006    0.4600    0.0000 O   0  0  0  0  0  0  0  0  0  0  0  0
   -0.2001   -0.0767    0.0000 P   0  0  0  0  0  0  0  0  0  0  0  0
   -0.4357   -1.5580    0.0000 O   0  0  0  0  0  0  0  0  0  0  0  0
   -1.8364   -2.0947    0.0000 C   0  0  0  0  0  0  0  0  0  0  0  0
   -3.0015   -1.1500    0.0000 C   0  0  0  0  0  0  0  0  0  0  0  0
   -2.7659    0.3314    0.0000 C   0  0  0  0  0  0  0  0  0  0  0  0
   -4.4022   -1.6866    0.0000 C   0  0  0  0  0  0  0  0  0  0  0  0
   -4.6378   -3.1680    0.0000 C   0  0  0  0  0  0  0  0  0  0  0  0
   -3.4727   -4.1128    0.0000 C   0  0  0  0  0  0  0  0  0  0  0  0
   -2.0720   -3.5761    0.0000 C   0  0  0  0  0  0  0  0  0  0  0  0
   -0.9069   -4.5208    0.0000 C   0  0  0  0  0  0  0  0  0  0  0  0
   -1.3652    0.8681    0.0000 O   0  0  0  0  0  0  0  0  0  0  0  0
   -1.1296    2.3494    0.0000 C   0  0  0  0  0  0  0  0  0  0  0  0
   -2.2947    3.2942    0.0000 C   0  0  0  0  0  0  0  0  0  0  0  0
   -3.6955    2.7575    0.0000 C   0  0  0  0  0  0  0  0  0  0  0  0
   -2.0591    4.7755    0.0000 C   0  0  0  0  0  0  0  0  0  0  0  0
   -0.6584    5.3122    0.0000 C   0  0  0  0  0  0  0  0  0  0  0  0
    0.5067    4.3675    0.0000 C   0  0  0  0  0  0  0  0  0  0  0  0
    0.2711    2.8861    0.0000 C   0  0  0  0  0  0  0  0  0  0  0  0
    1.4362    1.9414    0.0000 C   0  0  0  0  0  0  0  0  0  0  0  0
  1  2  1  0
  2  3  2  0
  3  4  1  0
  4  5  2  0
  5  6  1  0
  6  7  2  0
  7  8  1  0
  3  9  1  0
  9 10  1  0
 10 11  1  0
 11 12  1  0
 12 13  2  0
 13 14  1  0
 13 15  1  0
 15 16  2  0
 16 17  1  0
 17 18  2  0
 18 19  1  0
 10 20  1  0
 20 21  1  0
 21 22  2  0
 22 23  1  0
 22 24  1  0
 24 25  2  0
 25 26  1  0
 26 27  2  0
 27 28  1  0
  7  2  1  0
 18 12  1  0
 27 21  1  0
M  END
>  <linear_selectivity>  (634) 
70

>  <denticity>  (634) 
1

>  <ligand_class>  (634) 
phosphite

$$$$
P(O-2,6-xylyl)3_120C_THF
     RDKit          2D

 28 30  0  0  0  0  0  0  0  0999 V2000
    4.0020    1.5333    0.0000 C   0  0  0  0  0  0  0  0  0  0  0  0
    3.7664    0.0519    0.0000 C   0  0  0  0  0  0  0  0  0  0  0  0
    2.3657   -0.4847    0.0000 C   0  0  0  0  0  0  0  0  0  0  0  0
    2.1301   -1.9661    0.0000 C   0  0  0  0  0  0  0  0  0  0  0  0
    3.2953   -2.9108    0.0000 C   0  0  0  0  0  0  0  0  0  0  0  0
    4.6960   -2.3742    0.0000 C   0  0  0  0  0  0  0  0  0  0  0  0
    4.9316   -0.8928    0.0000 C   0  0  0  0  0  0  0  0  0  0  0  0
    6.3323   -0.3561    0.0000 C   0  0  0  0  0  0  0  0  0  0  0  0
    1.2006    0.4600    0.0000 O   0  0  0  0  0  0  0  0  0  0  0  0
   -0.2001   -0.0767    0.0000 P   0  0  0  0  0  0  0  0  0  0  0  0
   -0.4357   -1.5580    0.0000 O   0  0  0  0  0  0  0  0  0  0  0  0
   -1.8364   -2.0947    0.0000 C   0  0  0  0  0  0  0  0  0  0  0  0
   -3.0015   -1.1500    0.0000 C   0  0  0  0  0  0  0  0  0  0  0  0
   -2.7659    0.3314    0.0000 C   0  0  0  0  0  0  0  0  0  0  0  0
   -4.4022   -1.6866    0.0000 C   0  0  0  0  0  0  0  0  0  0  0  0
   -4.6378   -3.1680    0.0000 C   0  0  0  0  0  0  0  0  0  0  0  0
   -3.4727   -4.1128    0.0000 C   0  0  0  0  0  0  0  0  0  0  0  0
   -2.0720   -3.5761    0.0000 C   0  0  0  0  0  0  0  0  0  0  0  0
   -0.9069   -4.5208    0.0000 C   0  0  0  0  0  0  0  0  0  0  0  0
   -1.3652    0.8681    0.0000 O   0  0  0  0  0  0  0  0  0  0  0  0
   -1.1296    2.3494    0.0000 C   0  0  0  0  0  0  0  0  0  0  0  0
   -2.2947    3.2942    0.0000 C   0  0  0  0  0  0  0  0  0  0  0  0
   -3.6955    2.7575    0.0000 C   0  0  0  0  0  0  0  0  0  0  0  0
   -2.0591    4.7755    0.0000 C   0  0  0  0  0  0  0  0  0  0  0  0
   -0.6584    5.3122    0.0000 C   0  0  0  0  0  0  0  0  0  0  0  0
    0.5067    4.3675    0.0000 C   0  0  0  0  0  0  0  0  0  0  0  0
    0.2711    2.8861    0.0000 C   0  0  0  0  0  0  0  0  0  0  0  0
    1.4362    1.9414    0.0000 C   0  0  0  0  0  0  0  0  0  0  0  0
  1  2  1  0
  2  3  2  0
  3  4  1  0
  4  5  2  0
  5  6  1  0
  6  7  2  0
  7  8  1  0
  3  9  1  0
  9 10  1  0
 10 11  1  0
 11 12  1  0
 12 13  2  0
 13 14  1  0
 13 15  1  0
 15 16  2  0
 16 17  1  0
 17 18  2  0
 18 19  1  0
 10 20  1  0
 20 21  1  0
 21 22  2  0
 22 23  1  0
 22 24  1  0
 24 25  2  0
 25 26  1  0
 26 27  2  0
 27 28  1  0
  7  2  1  0
 18 12  1  0
 27 21  1  0
M  END
>  <linear_selectivity>  (635) 
63

>  <denticity>  (635) 
1

>  <ligand_class>  (635) 
phosphite

$$$$
P(O-2,6-xylyl)3_120C_dioxane
     RDKit          2D

 28 30  0  0  0  0  0  0  0  0999 V2000
    4.0020    1.5333    0.0000 C   0  0  0  0  0  0  0  0  0  0  0  0
    3.7664    0.0519    0.0000 C   0  0  0  0  0  0  0  0  0  0  0  0
    2.3657   -0.4847    0.0000 C   0  0  0  0  0  0  0  0  0  0  0  0
    2.1301   -1.9661    0.0000 C   0  0  0  0  0  0  0  0  0  0  0  0
    3.2953   -2.9108    0.0000 C   0  0  0  0  0  0  0  0  0  0  0  0
    4.6960   -2.3742    0.0000 C   0  0  0  0  0  0  0  0  0  0  0  0
    4.9316   -0.8928    0.0000 C   0  0  0  0  0  0  0  0  0  0  0  0
    6.3323   -0.3561    0.0000 C   0  0  0  0  0  0  0  0  0  0  0  0
    1.2006    0.4600    0.0000 O   0  0  0  0  0  0  0  0  0  0  0  0
   -0.2001   -0.0767    0.0000 P   0  0  0  0  0  0  0  0  0  0  0  0
   -0.4357   -1.5580    0.0000 O   0  0  0  0  0  0  0  0  0  0  0  0
   -1.8364   -2.0947    0.0000 C   0  0  0  0  0  0  0  0  0  0  0  0
   -3.0015   -1.1500    0.0000 C   0  0  0  0  0  0  0  0  0  0  0  0
   -2.7659    0.3314    0.0000 C   0  0  0  0  0  0  0  0  0  0  0  0
   -4.4022   -1.6866    0.0000 C   0  0  0  0  0  0  0  0  0  0  0  0
   -4.6378   -3.1680    0.0000 C   0  0  0  0  0  0  0  0  0  0  0  0
   -3.4727   -4.1128    0.0000 C   0  0  0  0  0  0  0  0  0  0  0  0
   -2.0720   -3.5761    0.0000 C   0  0  0  0  0  0  0  0  0  0  0  0
   -0.9069   -4.5208    0.0000 C   0  0  0  0  0  0  0  0  0  0  0  0
   -1.3652    0.8681    0.0000 O   0  0  0  0  0  0  0  0  0  0  0  0
   -1.1296    2.3494    0.0000 C   0  0  0  0  0  0  0  0  0  0  0  0
   -2.2947    3.2942    0.0000 C   0  0  0  0  0  0  0  0  0  0  0  0
   -3.6955    2.7575    0.0000 C   0  0  0  0  0  0  0  0  0  0  0  0
   -2.0591    4.7755    0.0000 C   0  0  0  0  0  0  0  0  0  0  0  0
   -0.6584    5.3122    0.0000 C   0  0  0  0  0  0  0  0  0  0  0  0
    0.5067    4.3675    0.0000 C   0  0  0  0  0  0  0  0  0  0  0  0
    0.2711    2.8861    0.0000 C   0  0  0  0  0  0  0  0  0  0  0  0
    1.4362    1.9414    0.0000 C   0  0  0  0  0  0  0  0  0  0  0  0
  1  2  1  0
  2  3  2  0
  3  4  1  0
  4  5  2  0
  5  6  1  0
  6  7  2  0
  7  8  1  0
  3  9  1  0
  9 10  1  0
 10 11  1  0
 11 12  1  0
 12 13  2  0
 13 14  1  0
 13 15  1  0
 15 16  2  0
 16 17  1  0
 17 18  2  0
 18 19  1  0
 10 20  1  0
 20 21  1  0
 21 22  2  0
 22 23  1  0
 22 24  1  0
 24 25  2  0
 25 26  1  0
 26 27  2  0
 27 28  1  0
  7  2  1  0
 18 12  1  0
 27 21  1  0
M  END
>  <linear_selectivity>  (636) 
69

>  <denticity>  (636) 
1

>  <ligand_class>  (636) 
phosphite

$$$$
P(O-2,6-xylyl)3_120C_hexane
     RDKit          2D

 28 30  0  0  0  0  0  0  0  0999 V2000
    4.0020    1.5333    0.0000 C   0  0  0  0  0  0  0  0  0  0  0  0
    3.7664    0.0519    0.0000 C   0  0  0  0  0  0  0  0  0  0  0  0
    2.3657   -0.4847    0.0000 C   0  0  0  0  0  0  0  0  0  0  0  0
    2.1301   -1.9661    0.0000 C   0  0  0  0  0  0  0  0  0  0  0  0
    3.2953   -2.9108    0.0000 C   0  0  0  0  0  0  0  0  0  0  0  0
    4.6960   -2.3742    0.0000 C   0  0  0  0  0  0  0  0  0  0  0  0
    4.9316   -0.8928    0.0000 C   0  0  0  0  0  0  0  0  0  0  0  0
    6.3323   -0.3561    0.0000 C   0  0  0  0  0  0  0  0  0  0  0  0
    1.2006    0.4600    0.0000 O   0  0  0  0  0  0  0  0  0  0  0  0
   -0.2001   -0.0767    0.0000 P   0  0  0  0  0  0  0  0  0  0  0  0
   -0.4357   -1.5580    0.0000 O   0  0  0  0  0  0  0  0  0  0  0  0
   -1.8364   -2.0947    0.0000 C   0  0  0  0  0  0  0  0  0  0  0  0
   -3.0015   -1.1500    0.0000 C   0  0  0  0  0  0  0  0  0  0  0  0
   -2.7659    0.3314    0.0000 C   0  0  0  0  0  0  0  0  0  0  0  0
   -4.4022   -1.6866    0.0000 C   0  0  0  0  0  0  0  0  0  0  0  0
   -4.6378   -3.1680    0.0000 C   0  0  0  0  0  0  0  0  0  0  0  0
   -3.4727   -4.1128    0.0000 C   0  0  0  0  0  0  0  0  0  0  0  0
   -2.0720   -3.5761    0.0000 C   0  0  0  0  0  0  0  0  0  0  0  0
   -0.9069   -4.5208    0.0000 C   0  0  0  0  0  0  0  0  0  0  0  0
   -1.3652    0.8681    0.0000 O   0  0  0  0  0  0  0  0  0  0  0  0
   -1.1296    2.3494    0.0000 C   0  0  0  0  0  0  0  0  0  0  0  0
   -2.2947    3.2942    0.0000 C   0  0  0  0  0  0  0  0  0  0  0  0
   -3.6955    2.7575    0.0000 C   0  0  0  0  0  0  0  0  0  0  0  0
   -2.0591    4.7755    0.0000 C   0  0  0  0  0  0  0  0  0  0  0  0
   -0.6584    5.3122    0.0000 C   0  0  0  0  0  0  0  0  0  0  0  0
    0.5067    4.3675    0.0000 C   0  0  0  0  0  0  0  0  0  0  0  0
    0.2711    2.8861    0.0000 C   0  0  0  0  0  0  0  0  0  0  0  0
    1.4362    1.9414    0.0000 C   0  0  0  0  0  0  0  0  0  0  0  0
  1  2  1  0
  2  3  2  0
  3  4  1  0
  4  5  2  0
  5  6  1  0
  6  7  2  0
  7  8  1  0
  3  9  1  0
  9 10  1  0
 10 11  1  0
 11 12  1  0
 12 13  2  0
 13 14  1  0
 13 15  1  0
 15 16  2  0
 16 17  1  0
 17 18  2  0
 18 19  1  0
 10 20  1  0
 20 21  1  0
 21 22  2  0
 22 23  1  0
 22 24  1  0
 24 25  2  0
 25 26  1  0
 26 27  2  0
 27 28  1  0
  7  2  1  0
 18 12  1  0
 27 21  1  0
M  END
>  <linear_selectivity>  (637) 
75

>  <denticity>  (637) 
1

>  <ligand_class>  (637) 
phosphite

$$$$
P(O-2,6-xylyl)3_120C_benzene
     RDKit          2D

 28 30  0  0  0  0  0  0  0  0999 V2000
    4.0020    1.5333    0.0000 C   0  0  0  0  0  0  0  0  0  0  0  0
    3.7664    0.0519    0.0000 C   0  0  0  0  0  0  0  0  0  0  0  0
    2.3657   -0.4847    0.0000 C   0  0  0  0  0  0  0  0  0  0  0  0
    2.1301   -1.9661    0.0000 C   0  0  0  0  0  0  0  0  0  0  0  0
    3.2953   -2.9108    0.0000 C   0  0  0  0  0  0  0  0  0  0  0  0
    4.6960   -2.3742    0.0000 C   0  0  0  0  0  0  0  0  0  0  0  0
    4.9316   -0.8928    0.0000 C   0  0  0  0  0  0  0  0  0  0  0  0
    6.3323   -0.3561    0.0000 C   0  0  0  0  0  0  0  0  0  0  0  0
    1.2006    0.4600    0.0000 O   0  0  0  0  0  0  0  0  0  0  0  0
   -0.2001   -0.0767    0.0000 P   0  0  0  0  0  0  0  0  0  0  0  0
   -0.4357   -1.5580    0.0000 O   0  0  0  0  0  0  0  0  0  0  0  0
   -1.8364   -2.0947    0.0000 C   0  0  0  0  0  0  0  0  0  0  0  0
   -3.0015   -1.1500    0.0000 C   0  0  0  0  0  0  0  0  0  0  0  0
   -2.7659    0.3314    0.0000 C   0  0  0  0  0  0  0  0  0  0  0  0
   -4.4022   -1.6866    0.0000 C   0  0  0  0  0  0  0  0  0  0  0  0
   -4.6378   -3.1680    0.0000 C   0  0  0  0  0  0  0  0  0  0  0  0
   -3.4727   -4.1128    0.0000 C   0  0  0  0  0  0  0  0  0  0  0  0
   -2.0720   -3.5761    0.0000 C   0  0  0  0  0  0  0  0  0  0  0  0
   -0.9069   -4.5208    0.0000 C   0  0  0  0  0  0  0  0  0  0  0  0
   -1.3652    0.8681    0.0000 O   0  0  0  0  0  0  0  0  0  0  0  0
   -1.1296    2.3494    0.0000 C   0  0  0  0  0  0  0  0  0  0  0  0
   -2.2947    3.2942    0.0000 C   0  0  0  0  0  0  0  0  0  0  0  0
   -3.6955    2.7575    0.0000 C   0  0  0  0  0  0  0  0  0  0  0  0
   -2.0591    4.7755    0.0000 C   0  0  0  0  0  0  0  0  0  0  0  0
   -0.6584    5.3122    0.0000 C   0  0  0  0  0  0  0  0  0  0  0  0
    0.5067    4.3675    0.0000 C   0  0  0  0  0  0  0  0  0  0  0  0
    0.2711    2.8861    0.0000 C   0  0  0  0  0  0  0  0  0  0  0  0
    1.4362    1.9414    0.0000 C   0  0  0  0  0  0  0  0  0  0  0  0
  1  2  1  0
  2  3  2  0
  3  4  1  0
  4  5  2  0
  5  6  1  0
  6  7  2  0
  7  8  1  0
  3  9  1  0
  9 10  1  0
 10 11  1  0
 11 12  1  0
 12 13  2  0
 13 14  1  0
 13 15  1  0
 15 16  2  0
 16 17  1  0
 17 18  2  0
 18 19  1  0
 10 20  1  0
 20 21  1  0
 21 22  2  0
 22 23  1  0
 22 24  1  0
 24 25  2  0
 25 26  1  0
 26 27  2  0
 27 28  1  0
  7  2  1  0
 18 12  1  0
 27 21  1  0
M  END
>  <linear_selectivity>  (638) 
68

>  <denticity>  (638) 
1

>  <ligand_class>  (638) 
phosphite

$$$$
P(O-2,6-xylyl)3_130C_toluene
     RDKit          2D

 28 30  0  0  0  0  0  0  0  0999 V2000
    4.0020    1.5333    0.0000 C   0  0  0  0  0  0  0  0  0  0  0  0
    3.7664    0.0519    0.0000 C   0  0  0  0  0  0  0  0  0  0  0  0
    2.3657   -0.4847    0.0000 C   0  0  0  0  0  0  0  0  0  0  0  0
    2.1301   -1.9661    0.0000 C   0  0  0  0  0  0  0  0  0  0  0  0
    3.2953   -2.9108    0.0000 C   0  0  0  0  0  0  0  0  0  0  0  0
    4.6960   -2.3742    0.0000 C   0  0  0  0  0  0  0  0  0  0  0  0
    4.9316   -0.8928    0.0000 C   0  0  0  0  0  0  0  0  0  0  0  0
    6.3323   -0.3561    0.0000 C   0  0  0  0  0  0  0  0  0  0  0  0
    1.2006    0.4600    0.0000 O   0  0  0  0  0  0  0  0  0  0  0  0
   -0.2001   -0.0767    0.0000 P   0  0  0  0  0  0  0  0  0  0  0  0
   -0.4357   -1.5580    0.0000 O   0  0  0  0  0  0  0  0  0  0  0  0
   -1.8364   -2.0947    0.0000 C   0  0  0  0  0  0  0  0  0  0  0  0
   -3.0015   -1.1500    0.0000 C   0  0  0  0  0  0  0  0  0  0  0  0
   -2.7659    0.3314    0.0000 C   0  0  0  0  0  0  0  0  0  0  0  0
   -4.4022   -1.6866    0.0000 C   0  0  0  0  0  0  0  0  0  0  0  0
   -4.6378   -3.1680    0.0000 C   0  0  0  0  0  0  0  0  0  0  0  0
   -3.4727   -4.1128    0.0000 C   0  0  0  0  0  0  0  0  0  0  0  0
   -2.0720   -3.5761    0.0000 C   0  0  0  0  0  0  0  0  0  0  0  0
   -0.9069   -4.5208    0.0000 C   0  0  0  0  0  0  0  0  0  0  0  0
   -1.3652    0.8681    0.0000 O   0  0  0  0  0  0  0  0  0  0  0  0
   -1.1296    2.3494    0.0000 C   0  0  0  0  0  0  0  0  0  0  0  0
   -2.2947    3.2942    0.0000 C   0  0  0  0  0  0  0  0  0  0  0  0
   -3.6955    2.7575    0.0000 C   0  0  0  0  0  0  0  0  0  0  0  0
   -2.0591    4.7755    0.0000 C   0  0  0  0  0  0  0  0  0  0  0  0
   -0.6584    5.3122    0.0000 C   0  0  0  0  0  0  0  0  0  0  0  0
    0.5067    4.3675    0.0000 C   0  0  0  0  0  0  0  0  0  0  0  0
    0.2711    2.8861    0.0000 C   0  0  0  0  0  0  0  0  0  0  0  0
    1.4362    1.9414    0.0000 C   0  0  0  0  0  0  0  0  0  0  0  0
  1  2  1  0
  2  3  2  0
  3  4  1  0
  4  5  2  0
  5  6  1  0
  6  7  2  0
  7  8  1  0
  3  9  1  0
  9 10  1  0
 10 11  1  0
 11 12  1  0
 12 13  2  0
 13 14  1  0
 13 15  1  0
 15 16  2  0
 16 17  1  0
 17 18  2  0
 18 19  1  0
 10 20  1  0
 20 21  1  0
 21 22  2  0
 22 23  1  0
 22 24  1  0
 24 25  2  0
 25 26  1  0
 26 27  2  0
 27 28  1  0
  7  2  1  0
 18 12  1  0
 27 21  1  0
M  END
>  <linear_selectivity>  (639) 
66

>  <denticity>  (639) 
1

>  <ligand_class>  (639) 
phosphite

$$$$
P(O-2,6-xylyl)3_130C_THF
     RDKit          2D

 28 30  0  0  0  0  0  0  0  0999 V2000
    4.0020    1.5333    0.0000 C   0  0  0  0  0  0  0  0  0  0  0  0
    3.7664    0.0519    0.0000 C   0  0  0  0  0  0  0  0  0  0  0  0
    2.3657   -0.4847    0.0000 C   0  0  0  0  0  0  0  0  0  0  0  0
    2.1301   -1.9661    0.0000 C   0  0  0  0  0  0  0  0  0  0  0  0
    3.2953   -2.9108    0.0000 C   0  0  0  0  0  0  0  0  0  0  0  0
    4.6960   -2.3742    0.0000 C   0  0  0  0  0  0  0  0  0  0  0  0
    4.9316   -0.8928    0.0000 C   0  0  0  0  0  0  0  0  0  0  0  0
    6.3323   -0.3561    0.0000 C   0  0  0  0  0  0  0  0  0  0  0  0
    1.2006    0.4600    0.0000 O   0  0  0  0  0  0  0  0  0  0  0  0
   -0.2001   -0.0767    0.0000 P   0  0  0  0  0  0  0  0  0  0  0  0
   -0.4357   -1.5580    0.0000 O   0  0  0  0  0  0  0  0  0  0  0  0
   -1.8364   -2.0947    0.0000 C   0  0  0  0  0  0  0  0  0  0  0  0
   -3.0015   -1.1500    0.0000 C   0  0  0  0  0  0  0  0  0  0  0  0
   -2.7659    0.3314    0.0000 C   0  0  0  0  0  0  0  0  0  0  0  0
   -4.4022   -1.6866    0.0000 C   0  0  0  0  0  0  0  0  0  0  0  0
   -4.6378   -3.1680    0.0000 C   0  0  0  0  0  0  0  0  0  0  0  0
   -3.4727   -4.1128    0.0000 C   0  0  0  0  0  0  0  0  0  0  0  0
   -2.0720   -3.5761    0.0000 C   0  0  0  0  0  0  0  0  0  0  0  0
   -0.9069   -4.5208    0.0000 C   0  0  0  0  0  0  0  0  0  0  0  0
   -1.3652    0.8681    0.0000 O   0  0  0  0  0  0  0  0  0  0  0  0
   -1.1296    2.3494    0.0000 C   0  0  0  0  0  0  0  0  0  0  0  0
   -2.2947    3.2942    0.0000 C   0  0  0  0  0  0  0  0  0  0  0  0
   -3.6955    2.7575    0.0000 C   0  0  0  0  0  0  0  0  0  0  0  0
   -2.0591    4.7755    0.0000 C   0  0  0  0  0  0  0  0  0  0  0  0
   -0.6584    5.3122    0.0000 C   0  0  0  0  0  0  0  0  0  0  0  0
    0.5067    4.3675    0.0000 C   0  0  0  0  0  0  0  0  0  0  0  0
    0.2711    2.8861    0.0000 C   0  0  0  0  0  0  0  0  0  0  0  0
    1.4362    1.9414    0.0000 C   0  0  0  0  0  0  0  0  0  0  0  0
  1  2  1  0
  2  3  2  0
  3  4  1  0
  4  5  2  0
  5  6  1  0
  6  7  2  0
  7  8  1  0
  3  9  1  0
  9 10  1  0
 10 11  1  0
 11 12  1  0
 12 13  2  0
 13 14  1  0
 13 15  1  0
 15 16  2  0
 16 17  1  0
 17 18  2  0
 18 19  1  0
 10 20  1  0
 20 21  1  0
 21 22  2  0
 22 23  1  0
 22 24  1  0
 24 25  2  0
 25 26  1  0
 26 27  2  0
 27 28  1  0
  7  2  1  0
 18 12  1  0
 27 21  1  0
M  END
>  <linear_selectivity>  (640) 
64

>  <denticity>  (640) 
1

>  <ligand_class>  (640) 
phosphite

$$$$
P(O-2,6-xylyl)3_130C_dioxane
     RDKit          2D

 28 30  0  0  0  0  0  0  0  0999 V2000
    4.0020    1.5333    0.0000 C   0  0  0  0  0  0  0  0  0  0  0  0
    3.7664    0.0519    0.0000 C   0  0  0  0  0  0  0  0  0  0  0  0
    2.3657   -0.4847    0.0000 C   0  0  0  0  0  0  0  0  0  0  0  0
    2.1301   -1.9661    0.0000 C   0  0  0  0  0  0  0  0  0  0  0  0
    3.2953   -2.9108    0.0000 C   0  0  0  0  0  0  0  0  0  0  0  0
    4.6960   -2.3742    0.0000 C   0  0  0  0  0  0  0  0  0  0  0  0
    4.9316   -0.8928    0.0000 C   0  0  0  0  0  0  0  0  0  0  0  0
    6.3323   -0.3561    0.0000 C   0  0  0  0  0  0  0  0  0  0  0  0
    1.2006    0.4600    0.0000 O   0  0  0  0  0  0  0  0  0  0  0  0
   -0.2001   -0.0767    0.0000 P   0  0  0  0  0  0  0  0  0  0  0  0
   -0.4357   -1.5580    0.0000 O   0  0  0  0  0  0  0  0  0  0  0  0
   -1.8364   -2.0947    0.0000 C   0  0  0  0  0  0  0  0  0  0  0  0
   -3.0015   -1.1500    0.0000 C   0  0  0  0  0  0  0  0  0  0  0  0
   -2.7659    0.3314    0.0000 C   0  0  0  0  0  0  0  0  0  0  0  0
   -4.4022   -1.6866    0.0000 C   0  0  0  0  0  0  0  0  0  0  0  0
   -4.6378   -3.1680    0.0000 C   0  0  0  0  0  0  0  0  0  0  0  0
   -3.4727   -4.1128    0.0000 C   0  0  0  0  0  0  0  0  0  0  0  0
   -2.0720   -3.5761    0.0000 C   0  0  0  0  0  0  0  0  0  0  0  0
   -0.9069   -4.5208    0.0000 C   0  0  0  0  0  0  0  0  0  0  0  0
   -1.3652    0.8681    0.0000 O   0  0  0  0  0  0  0  0  0  0  0  0
   -1.1296    2.3494    0.0000 C   0  0  0  0  0  0  0  0  0  0  0  0
   -2.2947    3.2942    0.0000 C   0  0  0  0  0  0  0  0  0  0  0  0
   -3.6955    2.7575    0.0000 C   0  0  0  0  0  0  0  0  0  0  0  0
   -2.0591    4.7755    0.0000 C   0  0  0  0  0  0  0  0  0  0  0  0
   -0.6584    5.3122    0.0000 C   0  0  0  0  0  0  0  0  0  0  0  0
    0.5067    4.3675    0.0000 C   0  0  0  0  0  0  0  0  0  0  0  0
    0.2711    2.8861    0.0000 C   0  0  0  0  0  0  0  0  0  0  0  0
    1.4362    1.9414    0.0000 C   0  0  0  0  0  0  0  0  0  0  0  0
  1  2  1  0
  2  3  2  0
  3  4  1  0
  4  5  2  0
  5  6  1  0
  6  7  2  0
  7  8  1  0
  3  9  1  0
  9 10  1  0
 10 11  1  0
 11 12  1  0
 12 13  2  0
 13 14  1  0
 13 15  1  0
 15 16  2  0
 16 17  1  0
 17 18  2  0
 18 19  1  0
 10 20  1  0
 20 21  1  0
 21 22  2  0
 22 23  1  0
 22 24  1  0
 24 25  2  0
 25 26  1  0
 26 27  2  0
 27 28  1  0
  7  2  1  0
 18 12  1  0
 27 21  1  0
M  END
>  <linear_selectivity>  (641) 
60

>  <denticity>  (641) 
1

>  <ligand_class>  (641) 
phosphite

$$$$
P(O-2,6-xylyl)3_130C_benzene
     RDKit          2D

 28 30  0  0  0  0  0  0  0  0999 V2000
    4.0020    1.5333    0.0000 C   0  0  0  0  0  0  0  0  0  0  0  0
    3.7664    0.0519    0.0000 C   0  0  0  0  0  0  0  0  0  0  0  0
    2.3657   -0.4847    0.0000 C   0  0  0  0  0  0  0  0  0  0  0  0
    2.1301   -1.9661    0.0000 C   0  0  0  0  0  0  0  0  0  0  0  0
    3.2953   -2.9108    0.0000 C   0  0  0  0  0  0  0  0  0  0  0  0
    4.6960   -2.3742    0.0000 C   0  0  0  0  0  0  0  0  0  0  0  0
    4.9316   -0.8928    0.0000 C   0  0  0  0  0  0  0  0  0  0  0  0
    6.3323   -0.3561    0.0000 C   0  0  0  0  0  0  0  0  0  0  0  0
    1.2006    0.4600    0.0000 O   0  0  0  0  0  0  0  0  0  0  0  0
   -0.2001   -0.0767    0.0000 P   0  0  0  0  0  0  0  0  0  0  0  0
   -0.4357   -1.5580    0.0000 O   0  0  0  0  0  0  0  0  0  0  0  0
   -1.8364   -2.0947    0.0000 C   0  0  0  0  0  0  0  0  0  0  0  0
   -3.0015   -1.1500    0.0000 C   0  0  0  0  0  0  0  0  0  0  0  0
   -2.7659    0.3314    0.0000 C   0  0  0  0  0  0  0  0  0  0  0  0
   -4.4022   -1.6866    0.0000 C   0  0  0  0  0  0  0  0  0  0  0  0
   -4.6378   -3.1680    0.0000 C   0  0  0  0  0  0  0  0  0  0  0  0
   -3.4727   -4.1128    0.0000 C   0  0  0  0  0  0  0  0  0  0  0  0
   -2.0720   -3.5761    0.0000 C   0  0  0  0  0  0  0  0  0  0  0  0
   -0.9069   -4.5208    0.0000 C   0  0  0  0  0  0  0  0  0  0  0  0
   -1.3652    0.8681    0.0000 O   0  0  0  0  0  0  0  0  0  0  0  0
   -1.1296    2.3494    0.0000 C   0  0  0  0  0  0  0  0  0  0  0  0
   -2.2947    3.2942    0.0000 C   0  0  0  0  0  0  0  0  0  0  0  0
   -3.6955    2.7575    0.0000 C   0  0  0  0  0  0  0  0  0  0  0  0
   -2.0591    4.7755    0.0000 C   0  0  0  0  0  0  0  0  0  0  0  0
   -0.6584    5.3122    0.0000 C   0  0  0  0  0  0  0  0  0  0  0  0
    0.5067    4.3675    0.0000 C   0  0  0  0  0  0  0  0  0  0  0  0
    0.2711    2.8861    0.0000 C   0  0  0  0  0  0  0  0  0  0  0  0
    1.4362    1.9414    0.0000 C   0  0  0  0  0  0  0  0  0  0  0  0
  1  2  1  0
  2  3  2  0
  3  4  1  0
  4  5  2  0
  5  6  1  0
  6  7  2  0
  7  8  1  0
  3  9  1  0
  9 10  1  0
 10 11  1  0
 11 12  1  0
 12 13  2  0
 13 14  1  0
 13 15  1  0
 15 16  2  0
 16 17  1  0
 17 18  2  0
 18 19  1  0
 10 20  1  0
 20 21  1  0
 21 22  2  0
 22 23  1  0
 22 24  1  0
 24 25  2  0
 25 26  1  0
 26 27  2  0
 27 28  1  0
  7  2  1  0
 18 12  1  0
 27 21  1  0
M  END
>  <linear_selectivity>  (642) 
67

>  <denticity>  (642) 
1

>  <ligand_class>  (642) 
phosphite

$$$$
P(O-2,6-xylyl)3_130C_xylene
     RDKit          2D

 28 30  0  0  0  0  0  0  0  0999 V2000
    4.0020    1.5333    0.0000 C   0  0  0  0  0  0  0  0  0  0  0  0
    3.7664    0.0519    0.0000 C   0  0  0  0  0  0  0  0  0  0  0  0
    2.3657   -0.4847    0.0000 C   0  0  0  0  0  0  0  0  0  0  0  0
    2.1301   -1.9661    0.0000 C   0  0  0  0  0  0  0  0  0  0  0  0
    3.2953   -2.9108    0.0000 C   0  0  0  0  0  0  0  0  0  0  0  0
    4.6960   -2.3742    0.0000 C   0  0  0  0  0  0  0  0  0  0  0  0
    4.9316   -0.8928    0.0000 C   0  0  0  0  0  0  0  0  0  0  0  0
    6.3323   -0.3561    0.0000 C   0  0  0  0  0  0  0  0  0  0  0  0
    1.2006    0.4600    0.0000 O   0  0  0  0  0  0  0  0  0  0  0  0
   -0.2001   -0.0767    0.0000 P   0  0  0  0  0  0  0  0  0  0  0  0
   -0.4357   -1.5580    0.0000 O   0  0  0  0  0  0  0  0  0  0  0  0
   -1.8364   -2.0947    0.0000 C   0  0  0  0  0  0  0  0  0  0  0  0
   -3.0015   -1.1500    0.0000 C   0  0  0  0  0  0  0  0  0  0  0  0
   -2.7659    0.3314    0.0000 C   0  0  0  0  0  0  0  0  0  0  0  0
   -4.4022   -1.6866    0.0000 C   0  0  0  0  0  0  0  0  0  0  0  0
   -4.6378   -3.1680    0.0000 C   0  0  0  0  0  0  0  0  0  0  0  0
   -3.4727   -4.1128    0.0000 C   0  0  0  0  0  0  0  0  0  0  0  0
   -2.0720   -3.5761    0.0000 C   0  0  0  0  0  0  0  0  0  0  0  0
   -0.9069   -4.5208    0.0000 C   0  0  0  0  0  0  0  0  0  0  0  0
   -1.3652    0.8681    0.0000 O   0  0  0  0  0  0  0  0  0  0  0  0
   -1.1296    2.3494    0.0000 C   0  0  0  0  0  0  0  0  0  0  0  0
   -2.2947    3.2942    0.0000 C   0  0  0  0  0  0  0  0  0  0  0  0
   -3.6955    2.7575    0.0000 C   0  0  0  0  0  0  0  0  0  0  0  0
   -2.0591    4.7755    0.0000 C   0  0  0  0  0  0  0  0  0  0  0  0
   -0.6584    5.3122    0.0000 C   0  0  0  0  0  0  0  0  0  0  0  0
    0.5067    4.3675    0.0000 C   0  0  0  0  0  0  0  0  0  0  0  0
    0.2711    2.8861    0.0000 C   0  0  0  0  0  0  0  0  0  0  0  0
    1.4362    1.9414    0.0000 C   0  0  0  0  0  0  0  0  0  0  0  0
  1  2  1  0
  2  3  2  0
  3  4  1  0
  4  5  2  0
  5  6  1  0
  6  7  2  0
  7  8  1  0
  3  9  1  0
  9 10  1  0
 10 11  1  0
 11 12  1  0
 12 13  2  0
 13 14  1  0
 13 15  1  0
 15 16  2  0
 16 17  1  0
 17 18  2  0
 18 19  1  0
 10 20  1  0
 20 21  1  0
 21 22  2  0
 22 23  1  0
 22 24  1  0
 24 25  2  0
 25 26  1  0
 26 27  2  0
 27 28  1  0
  7  2  1  0
 18 12  1  0
 27 21  1  0
M  END
>  <linear_selectivity>  (643) 
67

>  <denticity>  (643) 
1

>  <ligand_class>  (643) 
phosphite

$$$$
P(O-2-iPr-Ph)3
     RDKit          2D

 31 33  0  0  0  0  0  0  0  0999 V2000
   -5.8363    3.4651    0.0000 C   0  0  0  0  0  0  0  0  0  0  0  0
   -4.6340    2.5682    0.0000 C   0  0  0  0  0  0  0  0  0  0  0  0
   -4.8096    1.0785    0.0000 C   0  0  0  0  0  0  0  0  0  0  0  0
   -3.2561    3.1610    0.0000 C   0  0  0  0  0  0  0  0  0  0  0  0
   -3.0805    4.6507    0.0000 C   0  0  0  0  0  0  0  0  0  0  0  0
   -1.7026    5.2434    0.0000 C   0  0  0  0  0  0  0  0  0  0  0  0
   -0.5003    4.3465    0.0000 C   0  0  0  0  0  0  0  0  0  0  0  0
   -0.6759    2.8568    0.0000 C   0  0  0  0  0  0  0  0  0  0  0  0
    0.5264    1.9599    0.0000 O   0  0  0  0  0  0  0  0  0  0  0  0
    0.3508    0.4702    0.0000 P   0  0  0  0  0  0  0  0  0  0  0  0
    1.5531   -0.4267    0.0000 O   0  0  0  0  0  0  0  0  0  0  0  0
    2.9310    0.1661    0.0000 C   0  0  0  0  0  0  0  0  0  0  0  0
    3.1066    1.6558    0.0000 C   0  0  0  0  0  0  0  0  0  0  0  0
    4.4845    2.2485    0.0000 C   0  0  0  0  0  0  0  0  0  0  0  0
    5.6868    1.3516    0.0000 C   0  0  0  0  0  0  0  0  0  0  0  0
    5.5112   -0.1381    0.0000 C   0  0  0  0  0  0  0  0  0  0  0  0
    6.7135   -1.0350    0.0000 C   0  0  0  0  0  0  0  0  0  0  0  0
    8.0914   -0.4422    0.0000 C   0  0  0  0  0  0  0  0  0  0  0  0
    6.5379   -2.5247    0.0000 C   0  0  0  0  0  0  0  0  0  0  0  0
    4.1333   -0.7308    0.0000 C   0  0  0  0  0  0  0  0  0  0  0  0
   -1.0271   -0.1225    0.0000 O   0  0  0  0  0  0  0  0  0  0  0  0
   -1.2027   -1.6122    0.0000 C   0  0  0  0  0  0  0  0  0  0  0  0
   -0.0004   -2.5091    0.0000 C   0  0  0  0  0  0  0  0  0  0  0  0
   -0.1760   -3.9988    0.0000 C   0  0  0  0  0  0  0  0  0  0  0  0
   -1.5539   -4.5916    0.0000 C   0  0  0  0  0  0  0  0  0  0  0  0
   -2.7562   -3.6947    0.0000 C   0  0  0  0  0  0  0  0  0  0  0  0
   -4.1341   -4.2874    0.0000 C   0  0  0  0  0  0  0  0  0  0  0  0
   -4.3097   -5.7771    0.0000 C   0  0  0  0  0  0  0  0  0  0  0  0
   -5.3364   -3.3905    0.0000 C   0  0  0  0  0  0  0  0  0  0  0  0
   -2.5806   -2.2050    0.0000 C   0  0  0  0  0  0  0  0  0  0  0  0
   -2.0538    2.2641    0.0000 C   0  0  0  0  0  0  0  0  0  0  0  0
  1  2  1  0
  2  3  1  0
  2  4  1  0
  4  5  2  0
  5  6  1  0
  6  7  2  0
  7  8  1  0
  8  9  1  0
  9 10  1  0
 10 11  1  0
 11 12  1  0
 12 13  2  0
 13 14  1  0
 14 15  2  0
 15 16  1  0
 16 17  1  0
 17 18  1  0
 17 19  1  0
 16 20  2  0
 10 21  1  0
 21 22  1  0
 22 23  2  0
 23 24  1  0
 24 25  2  0
 25 26  1  0
 26 27  1  0
 27 28  1  0
 27 29  1  0
 26 30  2  0
  8 31  2  0
 31  4  1  0
 20 12  1  0
 30 22  1  0
M  END
>  <linear_selectivity>  (644) 
68

>  <denticity>  (644) 
1

>  <ligand_class>  (644) 
phosphite

$$$$
P(O-2-iPr-Ph)3_70C_toluene
     RDKit          2D

 31 33  0  0  0  0  0  0  0  0999 V2000
   -5.8363    3.4651    0.0000 C   0  0  0  0  0  0  0  0  0  0  0  0
   -4.6340    2.5682    0.0000 C   0  0  0  0  0  0  0  0  0  0  0  0
   -4.8096    1.0785    0.0000 C   0  0  0  0  0  0  0  0  0  0  0  0
   -3.2561    3.1610    0.0000 C   0  0  0  0  0  0  0  0  0  0  0  0
   -3.0805    4.6507    0.0000 C   0  0  0  0  0  0  0  0  0  0  0  0
   -1.7026    5.2434    0.0000 C   0  0  0  0  0  0  0  0  0  0  0  0
   -0.5003    4.3465    0.0000 C   0  0  0  0  0  0  0  0  0  0  0  0
   -0.6759    2.8568    0.0000 C   0  0  0  0  0  0  0  0  0  0  0  0
    0.5264    1.9599    0.0000 O   0  0  0  0  0  0  0  0  0  0  0  0
    0.3508    0.4702    0.0000 P   0  0  0  0  0  0  0  0  0  0  0  0
    1.5531   -0.4267    0.0000 O   0  0  0  0  0  0  0  0  0  0  0  0
    2.9310    0.1661    0.0000 C   0  0  0  0  0  0  0  0  0  0  0  0
    3.1066    1.6558    0.0000 C   0  0  0  0  0  0  0  0  0  0  0  0
    4.4845    2.2485    0.0000 C   0  0  0  0  0  0  0  0  0  0  0  0
    5.6868    1.3516    0.0000 C   0  0  0  0  0  0  0  0  0  0  0  0
    5.5112   -0.1381    0.0000 C   0  0  0  0  0  0  0  0  0  0  0  0
    6.7135   -1.0350    0.0000 C   0  0  0  0  0  0  0  0  0  0  0  0
    8.0914   -0.4422    0.0000 C   0  0  0  0  0  0  0  0  0  0  0  0
    6.5379   -2.5247    0.0000 C   0  0  0  0  0  0  0  0  0  0  0  0
    4.1333   -0.7308    0.0000 C   0  0  0  0  0  0  0  0  0  0  0  0
   -1.0271   -0.1225    0.0000 O   0  0  0  0  0  0  0  0  0  0  0  0
   -1.2027   -1.6122    0.0000 C   0  0  0  0  0  0  0  0  0  0  0  0
   -0.0004   -2.5091    0.0000 C   0  0  0  0  0  0  0  0  0  0  0  0
   -0.1760   -3.9988    0.0000 C   0  0  0  0  0  0  0  0  0  0  0  0
   -1.5539   -4.5916    0.0000 C   0  0  0  0  0  0  0  0  0  0  0  0
   -2.7562   -3.6947    0.0000 C   0  0  0  0  0  0  0  0  0  0  0  0
   -4.1341   -4.2874    0.0000 C   0  0  0  0  0  0  0  0  0  0  0  0
   -4.3097   -5.7771    0.0000 C   0  0  0  0  0  0  0  0  0  0  0  0
   -5.3364   -3.3905    0.0000 C   0  0  0  0  0  0  0  0  0  0  0  0
   -2.5806   -2.2050    0.0000 C   0  0  0  0  0  0  0  0  0  0  0  0
   -2.0538    2.2641    0.0000 C   0  0  0  0  0  0  0  0  0  0  0  0
  1  2  1  0
  2  3  1  0
  2  4  1  0
  4  5  2  0
  5  6  1  0
  6  7  2  0
  7  8  1  0
  8  9  1  0
  9 10  1  0
 10 11  1  0
 11 12  1  0
 12 13  2  0
 13 14  1  0
 14 15  2  0
 15 16  1  0
 16 17  1  0
 17 18  1  0
 17 19  1  0
 16 20  2  0
 10 21  1  0
 21 22  1  0
 22 23  2  0
 23 24  1  0
 24 25  2  0
 25 26  1  0
 26 27  1  0
 27 28  1  0
 27 29  1  0
 26 30  2  0
  8 31  2  0
 31  4  1  0
 20 12  1  0
 30 22  1  0
M  END
>  <linear_selectivity>  (645) 
75

>  <denticity>  (645) 
1

>  <ligand_class>  (645) 
phosphite

$$$$
P(O-2-iPr-Ph)3_70C_THF
     RDKit          2D

 31 33  0  0  0  0  0  0  0  0999 V2000
   -5.8363    3.4651    0.0000 C   0  0  0  0  0  0  0  0  0  0  0  0
   -4.6340    2.5682    0.0000 C   0  0  0  0  0  0  0  0  0  0  0  0
   -4.8096    1.0785    0.0000 C   0  0  0  0  0  0  0  0  0  0  0  0
   -3.2561    3.1610    0.0000 C   0  0  0  0  0  0  0  0  0  0  0  0
   -3.0805    4.6507    0.0000 C   0  0  0  0  0  0  0  0  0  0  0  0
   -1.7026    5.2434    0.0000 C   0  0  0  0  0  0  0  0  0  0  0  0
   -0.5003    4.3465    0.0000 C   0  0  0  0  0  0  0  0  0  0  0  0
   -0.6759    2.8568    0.0000 C   0  0  0  0  0  0  0  0  0  0  0  0
    0.5264    1.9599    0.0000 O   0  0  0  0  0  0  0  0  0  0  0  0
    0.3508    0.4702    0.0000 P   0  0  0  0  0  0  0  0  0  0  0  0
    1.5531   -0.4267    0.0000 O   0  0  0  0  0  0  0  0  0  0  0  0
    2.9310    0.1661    0.0000 C   0  0  0  0  0  0  0  0  0  0  0  0
    3.1066    1.6558    0.0000 C   0  0  0  0  0  0  0  0  0  0  0  0
    4.4845    2.2485    0.0000 C   0  0  0  0  0  0  0  0  0  0  0  0
    5.6868    1.3516    0.0000 C   0  0  0  0  0  0  0  0  0  0  0  0
    5.5112   -0.1381    0.0000 C   0  0  0  0  0  0  0  0  0  0  0  0
    6.7135   -1.0350    0.0000 C   0  0  0  0  0  0  0  0  0  0  0  0
    8.0914   -0.4422    0.0000 C   0  0  0  0  0  0  0  0  0  0  0  0
    6.5379   -2.5247    0.0000 C   0  0  0  0  0  0  0  0  0  0  0  0
    4.1333   -0.7308    0.0000 C   0  0  0  0  0  0  0  0  0  0  0  0
   -1.0271   -0.1225    0.0000 O   0  0  0  0  0  0  0  0  0  0  0  0
   -1.2027   -1.6122    0.0000 C   0  0  0  0  0  0  0  0  0  0  0  0
   -0.0004   -2.5091    0.0000 C   0  0  0  0  0  0  0  0  0  0  0  0
   -0.1760   -3.9988    0.0000 C   0  0  0  0  0  0  0  0  0  0  0  0
   -1.5539   -4.5916    0.0000 C   0  0  0  0  0  0  0  0  0  0  0  0
   -2.7562   -3.6947    0.0000 C   0  0  0  0  0  0  0  0  0  0  0  0
   -4.1341   -4.2874    0.0000 C   0  0  0  0  0  0  0  0  0  0  0  0
   -4.3097   -5.7771    0.0000 C   0  0  0  0  0  0  0  0  0  0  0  0
   -5.3364   -3.3905    0.0000 C   0  0  0  0  0  0  0  0  0  0  0  0
   -2.5806   -2.2050    0.0000 C   0  0  0  0  0  0  0  0  0  0  0  0
   -2.0538    2.2641    0.0000 C   0  0  0  0  0  0  0  0  0  0  0  0
  1  2  1  0
  2  3  1  0
  2  4  1  0
  4  5  2  0
  5  6  1  0
  6  7  2  0
  7  8  1  0
  8  9  1  0
  9 10  1  0
 10 11  1  0
 11 12  1  0
 12 13  2  0
 13 14  1  0
 14 15  2  0
 15 16  1  0
 16 17  1  0
 17 18  1  0
 17 19  1  0
 16 20  2  0
 10 21  1  0
 21 22  1  0
 22 23  2  0
 23 24  1  0
 24 25  2  0
 25 26  1  0
 26 27  1  0
 27 28  1  0
 27 29  1  0
 26 30  2  0
  8 31  2  0
 31  4  1  0
 20 12  1  0
 30 22  1  0
M  END
>  <linear_selectivity>  (646) 
71

>  <denticity>  (646) 
1

>  <ligand_class>  (646) 
phosphite

$$$$
P(O-2-iPr-Ph)3_70C_dioxane
     RDKit          2D

 31 33  0  0  0  0  0  0  0  0999 V2000
   -5.8363    3.4651    0.0000 C   0  0  0  0  0  0  0  0  0  0  0  0
   -4.6340    2.5682    0.0000 C   0  0  0  0  0  0  0  0  0  0  0  0
   -4.8096    1.0785    0.0000 C   0  0  0  0  0  0  0  0  0  0  0  0
   -3.2561    3.1610    0.0000 C   0  0  0  0  0  0  0  0  0  0  0  0
   -3.0805    4.6507    0.0000 C   0  0  0  0  0  0  0  0  0  0  0  0
   -1.7026    5.2434    0.0000 C   0  0  0  0  0  0  0  0  0  0  0  0
   -0.5003    4.3465    0.0000 C   0  0  0  0  0  0  0  0  0  0  0  0
   -0.6759    2.8568    0.0000 C   0  0  0  0  0  0  0  0  0  0  0  0
    0.5264    1.9599    0.0000 O   0  0  0  0  0  0  0  0  0  0  0  0
    0.3508    0.4702    0.0000 P   0  0  0  0  0  0  0  0  0  0  0  0
    1.5531   -0.4267    0.0000 O   0  0  0  0  0  0  0  0  0  0  0  0
    2.9310    0.1661    0.0000 C   0  0  0  0  0  0  0  0  0  0  0  0
    3.1066    1.6558    0.0000 C   0  0  0  0  0  0  0  0  0  0  0  0
    4.4845    2.2485    0.0000 C   0  0  0  0  0  0  0  0  0  0  0  0
    5.6868    1.3516    0.0000 C   0  0  0  0  0  0  0  0  0  0  0  0
    5.5112   -0.1381    0.0000 C   0  0  0  0  0  0  0  0  0  0  0  0
    6.7135   -1.0350    0.0000 C   0  0  0  0  0  0  0  0  0  0  0  0
    8.0914   -0.4422    0.0000 C   0  0  0  0  0  0  0  0  0  0  0  0
    6.5379   -2.5247    0.0000 C   0  0  0  0  0  0  0  0  0  0  0  0
    4.1333   -0.7308    0.0000 C   0  0  0  0  0  0  0  0  0  0  0  0
   -1.0271   -0.1225    0.0000 O   0  0  0  0  0  0  0  0  0  0  0  0
   -1.2027   -1.6122    0.0000 C   0  0  0  0  0  0  0  0  0  0  0  0
   -0.0004   -2.5091    0.0000 C   0  0  0  0  0  0  0  0  0  0  0  0
   -0.1760   -3.9988    0.0000 C   0  0  0  0  0  0  0  0  0  0  0  0
   -1.5539   -4.5916    0.0000 C   0  0  0  0  0  0  0  0  0  0  0  0
   -2.7562   -3.6947    0.0000 C   0  0  0  0  0  0  0  0  0  0  0  0
   -4.1341   -4.2874    0.0000 C   0  0  0  0  0  0  0  0  0  0  0  0
   -4.3097   -5.7771    0.0000 C   0  0  0  0  0  0  0  0  0  0  0  0
   -5.3364   -3.3905    0.0000 C   0  0  0  0  0  0  0  0  0  0  0  0
   -2.5806   -2.2050    0.0000 C   0  0  0  0  0  0  0  0  0  0  0  0
   -2.0538    2.2641    0.0000 C   0  0  0  0  0  0  0  0  0  0  0  0
  1  2  1  0
  2  3  1  0
  2  4  1  0
  4  5  2  0
  5  6  1  0
  6  7  2  0
  7  8  1  0
  8  9  1  0
  9 10  1  0
 10 11  1  0
 11 12  1  0
 12 13  2  0
 13 14  1  0
 14 15  2  0
 15 16  1  0
 16 17  1  0
 17 18  1  0
 17 19  1  0
 16 20  2  0
 10 21  1  0
 21 22  1  0
 22 23  2  0
 23 24  1  0
 24 25  2  0
 25 26  1  0
 26 27  1  0
 27 28  1  0
 27 29  1  0
 26 30  2  0
  8 31  2  0
 31  4  1  0
 20 12  1  0
 30 22  1  0
M  END
>  <linear_selectivity>  (647) 
73

>  <denticity>  (647) 
1

>  <ligand_class>  (647) 
phosphite

$$$$
P(O-2-iPr-Ph)3_70C_hexane
     RDKit          2D

 31 33  0  0  0  0  0  0  0  0999 V2000
   -5.8363    3.4651    0.0000 C   0  0  0  0  0  0  0  0  0  0  0  0
   -4.6340    2.5682    0.0000 C   0  0  0  0  0  0  0  0  0  0  0  0
   -4.8096    1.0785    0.0000 C   0  0  0  0  0  0  0  0  0  0  0  0
   -3.2561    3.1610    0.0000 C   0  0  0  0  0  0  0  0  0  0  0  0
   -3.0805    4.6507    0.0000 C   0  0  0  0  0  0  0  0  0  0  0  0
   -1.7026    5.2434    0.0000 C   0  0  0  0  0  0  0  0  0  0  0  0
   -0.5003    4.3465    0.0000 C   0  0  0  0  0  0  0  0  0  0  0  0
   -0.6759    2.8568    0.0000 C   0  0  0  0  0  0  0  0  0  0  0  0
    0.5264    1.9599    0.0000 O   0  0  0  0  0  0  0  0  0  0  0  0
    0.3508    0.4702    0.0000 P   0  0  0  0  0  0  0  0  0  0  0  0
    1.5531   -0.4267    0.0000 O   0  0  0  0  0  0  0  0  0  0  0  0
    2.9310    0.1661    0.0000 C   0  0  0  0  0  0  0  0  0  0  0  0
    3.1066    1.6558    0.0000 C   0  0  0  0  0  0  0  0  0  0  0  0
    4.4845    2.2485    0.0000 C   0  0  0  0  0  0  0  0  0  0  0  0
    5.6868    1.3516    0.0000 C   0  0  0  0  0  0  0  0  0  0  0  0
    5.5112   -0.1381    0.0000 C   0  0  0  0  0  0  0  0  0  0  0  0
    6.7135   -1.0350    0.0000 C   0  0  0  0  0  0  0  0  0  0  0  0
    8.0914   -0.4422    0.0000 C   0  0  0  0  0  0  0  0  0  0  0  0
    6.5379   -2.5247    0.0000 C   0  0  0  0  0  0  0  0  0  0  0  0
    4.1333   -0.7308    0.0000 C   0  0  0  0  0  0  0  0  0  0  0  0
   -1.0271   -0.1225    0.0000 O   0  0  0  0  0  0  0  0  0  0  0  0
   -1.2027   -1.6122    0.0000 C   0  0  0  0  0  0  0  0  0  0  0  0
   -0.0004   -2.5091    0.0000 C   0  0  0  0  0  0  0  0  0  0  0  0
   -0.1760   -3.9988    0.0000 C   0  0  0  0  0  0  0  0  0  0  0  0
   -1.5539   -4.5916    0.0000 C   0  0  0  0  0  0  0  0  0  0  0  0
   -2.7562   -3.6947    0.0000 C   0  0  0  0  0  0  0  0  0  0  0  0
   -4.1341   -4.2874    0.0000 C   0  0  0  0  0  0  0  0  0  0  0  0
   -4.3097   -5.7771    0.0000 C   0  0  0  0  0  0  0  0  0  0  0  0
   -5.3364   -3.3905    0.0000 C   0  0  0  0  0  0  0  0  0  0  0  0
   -2.5806   -2.2050    0.0000 C   0  0  0  0  0  0  0  0  0  0  0  0
   -2.0538    2.2641    0.0000 C   0  0  0  0  0  0  0  0  0  0  0  0
  1  2  1  0
  2  3  1  0
  2  4  1  0
  4  5  2  0
  5  6  1  0
  6  7  2  0
  7  8  1  0
  8  9  1  0
  9 10  1  0
 10 11  1  0
 11 12  1  0
 12 13  2  0
 13 14  1  0
 14 15  2  0
 15 16  1  0
 16 17  1  0
 17 18  1  0
 17 19  1  0
 16 20  2  0
 10 21  1  0
 21 22  1  0
 22 23  2  0
 23 24  1  0
 24 25  2  0
 25 26  1  0
 26 27  1  0
 27 28  1  0
 27 29  1  0
 26 30  2  0
  8 31  2  0
 31  4  1  0
 20 12  1  0
 30 22  1  0
M  END
>  <linear_selectivity>  (648) 
78

>  <denticity>  (648) 
1

>  <ligand_class>  (648) 
phosphite

$$$$
P(O-2-iPr-Ph)3_70C_xylene
     RDKit          2D

 31 33  0  0  0  0  0  0  0  0999 V2000
   -5.8363    3.4651    0.0000 C   0  0  0  0  0  0  0  0  0  0  0  0
   -4.6340    2.5682    0.0000 C   0  0  0  0  0  0  0  0  0  0  0  0
   -4.8096    1.0785    0.0000 C   0  0  0  0  0  0  0  0  0  0  0  0
   -3.2561    3.1610    0.0000 C   0  0  0  0  0  0  0  0  0  0  0  0
   -3.0805    4.6507    0.0000 C   0  0  0  0  0  0  0  0  0  0  0  0
   -1.7026    5.2434    0.0000 C   0  0  0  0  0  0  0  0  0  0  0  0
   -0.5003    4.3465    0.0000 C   0  0  0  0  0  0  0  0  0  0  0  0
   -0.6759    2.8568    0.0000 C   0  0  0  0  0  0  0  0  0  0  0  0
    0.5264    1.9599    0.0000 O   0  0  0  0  0  0  0  0  0  0  0  0
    0.3508    0.4702    0.0000 P   0  0  0  0  0  0  0  0  0  0  0  0
    1.5531   -0.4267    0.0000 O   0  0  0  0  0  0  0  0  0  0  0  0
    2.9310    0.1661    0.0000 C   0  0  0  0  0  0  0  0  0  0  0  0
    3.1066    1.6558    0.0000 C   0  0  0  0  0  0  0  0  0  0  0  0
    4.4845    2.2485    0.0000 C   0  0  0  0  0  0  0  0  0  0  0  0
    5.6868    1.3516    0.0000 C   0  0  0  0  0  0  0  0  0  0  0  0
    5.5112   -0.1381    0.0000 C   0  0  0  0  0  0  0  0  0  0  0  0
    6.7135   -1.0350    0.0000 C   0  0  0  0  0  0  0  0  0  0  0  0
    8.0914   -0.4422    0.0000 C   0  0  0  0  0  0  0  0  0  0  0  0
    6.5379   -2.5247    0.0000 C   0  0  0  0  0  0  0  0  0  0  0  0
    4.1333   -0.7308    0.0000 C   0  0  0  0  0  0  0  0  0  0  0  0
   -1.0271   -0.1225    0.0000 O   0  0  0  0  0  0  0  0  0  0  0  0
   -1.2027   -1.6122    0.0000 C   0  0  0  0  0  0  0  0  0  0  0  0
   -0.0004   -2.5091    0.0000 C   0  0  0  0  0  0  0  0  0  0  0  0
   -0.1760   -3.9988    0.0000 C   0  0  0  0  0  0  0  0  0  0  0  0
   -1.5539   -4.5916    0.0000 C   0  0  0  0  0  0  0  0  0  0  0  0
   -2.7562   -3.6947    0.0000 C   0  0  0  0  0  0  0  0  0  0  0  0
   -4.1341   -4.2874    0.0000 C   0  0  0  0  0  0  0  0  0  0  0  0
   -4.3097   -5.7771    0.0000 C   0  0  0  0  0  0  0  0  0  0  0  0
   -5.3364   -3.3905    0.0000 C   0  0  0  0  0  0  0  0  0  0  0  0
   -2.5806   -2.2050    0.0000 C   0  0  0  0  0  0  0  0  0  0  0  0
   -2.0538    2.2641    0.0000 C   0  0  0  0  0  0  0  0  0  0  0  0
  1  2  1  0
  2  3  1  0
  2  4  1  0
  4  5  2  0
  5  6  1  0
  6  7  2  0
  7  8  1  0
  8  9  1  0
  9 10  1  0
 10 11  1  0
 11 12  1  0
 12 13  2  0
 13 14  1  0
 14 15  2  0
 15 16  1  0
 16 17  1  0
 17 18  1  0
 17 19  1  0
 16 20  2  0
 10 21  1  0
 21 22  1  0
 22 23  2  0
 23 24  1  0
 24 25  2  0
 25 26  1  0
 26 27  1  0
 27 28  1  0
 27 29  1  0
 26 30  2  0
  8 31  2  0
 31  4  1  0
 20 12  1  0
 30 22  1  0
M  END
>  <linear_selectivity>  (649) 
77

>  <denticity>  (649) 
1

>  <ligand_class>  (649) 
phosphite

$$$$
P(O-2-iPr-Ph)3_80C_toluene
     RDKit          2D

 31 33  0  0  0  0  0  0  0  0999 V2000
   -5.8363    3.4651    0.0000 C   0  0  0  0  0  0  0  0  0  0  0  0
   -4.6340    2.5682    0.0000 C   0  0  0  0  0  0  0  0  0  0  0  0
   -4.8096    1.0785    0.0000 C   0  0  0  0  0  0  0  0  0  0  0  0
   -3.2561    3.1610    0.0000 C   0  0  0  0  0  0  0  0  0  0  0  0
   -3.0805    4.6507    0.0000 C   0  0  0  0  0  0  0  0  0  0  0  0
   -1.7026    5.2434    0.0000 C   0  0  0  0  0  0  0  0  0  0  0  0
   -0.5003    4.3465    0.0000 C   0  0  0  0  0  0  0  0  0  0  0  0
   -0.6759    2.8568    0.0000 C   0  0  0  0  0  0  0  0  0  0  0  0
    0.5264    1.9599    0.0000 O   0  0  0  0  0  0  0  0  0  0  0  0
    0.3508    0.4702    0.0000 P   0  0  0  0  0  0  0  0  0  0  0  0
    1.5531   -0.4267    0.0000 O   0  0  0  0  0  0  0  0  0  0  0  0
    2.9310    0.1661    0.0000 C   0  0  0  0  0  0  0  0  0  0  0  0
    3.1066    1.6558    0.0000 C   0  0  0  0  0  0  0  0  0  0  0  0
    4.4845    2.2485    0.0000 C   0  0  0  0  0  0  0  0  0  0  0  0
    5.6868    1.3516    0.0000 C   0  0  0  0  0  0  0  0  0  0  0  0
    5.5112   -0.1381    0.0000 C   0  0  0  0  0  0  0  0  0  0  0  0
    6.7135   -1.0350    0.0000 C   0  0  0  0  0  0  0  0  0  0  0  0
    8.0914   -0.4422    0.0000 C   0  0  0  0  0  0  0  0  0  0  0  0
    6.5379   -2.5247    0.0000 C   0  0  0  0  0  0  0  0  0  0  0  0
    4.1333   -0.7308    0.0000 C   0  0  0  0  0  0  0  0  0  0  0  0
   -1.0271   -0.1225    0.0000 O   0  0  0  0  0  0  0  0  0  0  0  0
   -1.2027   -1.6122    0.0000 C   0  0  0  0  0  0  0  0  0  0  0  0
   -0.0004   -2.5091    0.0000 C   0  0  0  0  0  0  0  0  0  0  0  0
   -0.1760   -3.9988    0.0000 C   0  0  0  0  0  0  0  0  0  0  0  0
   -1.5539   -4.5916    0.0000 C   0  0  0  0  0  0  0  0  0  0  0  0
   -2.7562   -3.6947    0.0000 C   0  0  0  0  0  0  0  0  0  0  0  0
   -4.1341   -4.2874    0.0000 C   0  0  0  0  0  0  0  0  0  0  0  0
   -4.3097   -5.7771    0.0000 C   0  0  0  0  0  0  0  0  0  0  0  0
   -5.3364   -3.3905    0.0000 C   0  0  0  0  0  0  0  0  0  0  0  0
   -2.5806   -2.2050    0.0000 C   0  0  0  0  0  0  0  0  0  0  0  0
   -2.0538    2.2641    0.0000 C   0  0  0  0  0  0  0  0  0  0  0  0
  1  2  1  0
  2  3  1  0
  2  4  1  0
  4  5  2  0
  5  6  1  0
  6  7  2  0
  7  8  1  0
  8  9  1  0
  9 10  1  0
 10 11  1  0
 11 12  1  0
 12 13  2  0
 13 14  1  0
 14 15  2  0
 15 16  1  0
 16 17  1  0
 17 18  1  0
 17 19  1  0
 16 20  2  0
 10 21  1  0
 21 22  1  0
 22 23  2  0
 23 24  1  0
 24 25  2  0
 25 26  1  0
 26 27  1  0
 27 28  1  0
 27 29  1  0
 26 30  2  0
  8 31  2  0
 31  4  1  0
 20 12  1  0
 30 22  1  0
M  END
>  <linear_selectivity>  (650) 
73

>  <denticity>  (650) 
1

>  <ligand_class>  (650) 
phosphite

$$$$
P(O-2-iPr-Ph)3_80C_THF
     RDKit          2D

 31 33  0  0  0  0  0  0  0  0999 V2000
   -5.8363    3.4651    0.0000 C   0  0  0  0  0  0  0  0  0  0  0  0
   -4.6340    2.5682    0.0000 C   0  0  0  0  0  0  0  0  0  0  0  0
   -4.8096    1.0785    0.0000 C   0  0  0  0  0  0  0  0  0  0  0  0
   -3.2561    3.1610    0.0000 C   0  0  0  0  0  0  0  0  0  0  0  0
   -3.0805    4.6507    0.0000 C   0  0  0  0  0  0  0  0  0  0  0  0
   -1.7026    5.2434    0.0000 C   0  0  0  0  0  0  0  0  0  0  0  0
   -0.5003    4.3465    0.0000 C   0  0  0  0  0  0  0  0  0  0  0  0
   -0.6759    2.8568    0.0000 C   0  0  0  0  0  0  0  0  0  0  0  0
    0.5264    1.9599    0.0000 O   0  0  0  0  0  0  0  0  0  0  0  0
    0.3508    0.4702    0.0000 P   0  0  0  0  0  0  0  0  0  0  0  0
    1.5531   -0.4267    0.0000 O   0  0  0  0  0  0  0  0  0  0  0  0
    2.9310    0.1661    0.0000 C   0  0  0  0  0  0  0  0  0  0  0  0
    3.1066    1.6558    0.0000 C   0  0  0  0  0  0  0  0  0  0  0  0
    4.4845    2.2485    0.0000 C   0  0  0  0  0  0  0  0  0  0  0  0
    5.6868    1.3516    0.0000 C   0  0  0  0  0  0  0  0  0  0  0  0
    5.5112   -0.1381    0.0000 C   0  0  0  0  0  0  0  0  0  0  0  0
    6.7135   -1.0350    0.0000 C   0  0  0  0  0  0  0  0  0  0  0  0
    8.0914   -0.4422    0.0000 C   0  0  0  0  0  0  0  0  0  0  0  0
    6.5379   -2.5247    0.0000 C   0  0  0  0  0  0  0  0  0  0  0  0
    4.1333   -0.7308    0.0000 C   0  0  0  0  0  0  0  0  0  0  0  0
   -1.0271   -0.1225    0.0000 O   0  0  0  0  0  0  0  0  0  0  0  0
   -1.2027   -1.6122    0.0000 C   0  0  0  0  0  0  0  0  0  0  0  0
   -0.0004   -2.5091    0.0000 C   0  0  0  0  0  0  0  0  0  0  0  0
   -0.1760   -3.9988    0.0000 C   0  0  0  0  0  0  0  0  0  0  0  0
   -1.5539   -4.5916    0.0000 C   0  0  0  0  0  0  0  0  0  0  0  0
   -2.7562   -3.6947    0.0000 C   0  0  0  0  0  0  0  0  0  0  0  0
   -4.1341   -4.2874    0.0000 C   0  0  0  0  0  0  0  0  0  0  0  0
   -4.3097   -5.7771    0.0000 C   0  0  0  0  0  0  0  0  0  0  0  0
   -5.3364   -3.3905    0.0000 C   0  0  0  0  0  0  0  0  0  0  0  0
   -2.5806   -2.2050    0.0000 C   0  0  0  0  0  0  0  0  0  0  0  0
   -2.0538    2.2641    0.0000 C   0  0  0  0  0  0  0  0  0  0  0  0
  1  2  1  0
  2  3  1  0
  2  4  1  0
  4  5  2  0
  5  6  1  0
  6  7  2  0
  7  8  1  0
  8  9  1  0
  9 10  1  0
 10 11  1  0
 11 12  1  0
 12 13  2  0
 13 14  1  0
 14 15  2  0
 15 16  1  0
 16 17  1  0
 17 18  1  0
 17 19  1  0
 16 20  2  0
 10 21  1  0
 21 22  1  0
 22 23  2  0
 23 24  1  0
 24 25  2  0
 25 26  1  0
 26 27  1  0
 27 28  1  0
 27 29  1  0
 26 30  2  0
  8 31  2  0
 31  4  1  0
 20 12  1  0
 30 22  1  0
M  END
>  <linear_selectivity>  (651) 
67

>  <denticity>  (651) 
1

>  <ligand_class>  (651) 
phosphite

$$$$
P(O-2-iPr-Ph)3_80C_xylene
     RDKit          2D

 31 33  0  0  0  0  0  0  0  0999 V2000
   -5.8363    3.4651    0.0000 C   0  0  0  0  0  0  0  0  0  0  0  0
   -4.6340    2.5682    0.0000 C   0  0  0  0  0  0  0  0  0  0  0  0
   -4.8096    1.0785    0.0000 C   0  0  0  0  0  0  0  0  0  0  0  0
   -3.2561    3.1610    0.0000 C   0  0  0  0  0  0  0  0  0  0  0  0
   -3.0805    4.6507    0.0000 C   0  0  0  0  0  0  0  0  0  0  0  0
   -1.7026    5.2434    0.0000 C   0  0  0  0  0  0  0  0  0  0  0  0
   -0.5003    4.3465    0.0000 C   0  0  0  0  0  0  0  0  0  0  0  0
   -0.6759    2.8568    0.0000 C   0  0  0  0  0  0  0  0  0  0  0  0
    0.5264    1.9599    0.0000 O   0  0  0  0  0  0  0  0  0  0  0  0
    0.3508    0.4702    0.0000 P   0  0  0  0  0  0  0  0  0  0  0  0
    1.5531   -0.4267    0.0000 O   0  0  0  0  0  0  0  0  0  0  0  0
    2.9310    0.1661    0.0000 C   0  0  0  0  0  0  0  0  0  0  0  0
    3.1066    1.6558    0.0000 C   0  0  0  0  0  0  0  0  0  0  0  0
    4.4845    2.2485    0.0000 C   0  0  0  0  0  0  0  0  0  0  0  0
    5.6868    1.3516    0.0000 C   0  0  0  0  0  0  0  0  0  0  0  0
    5.5112   -0.1381    0.0000 C   0  0  0  0  0  0  0  0  0  0  0  0
    6.7135   -1.0350    0.0000 C   0  0  0  0  0  0  0  0  0  0  0  0
    8.0914   -0.4422    0.0000 C   0  0  0  0  0  0  0  0  0  0  0  0
    6.5379   -2.5247    0.0000 C   0  0  0  0  0  0  0  0  0  0  0  0
    4.1333   -0.7308    0.0000 C   0  0  0  0  0  0  0  0  0  0  0  0
   -1.0271   -0.1225    0.0000 O   0  0  0  0  0  0  0  0  0  0  0  0
   -1.2027   -1.6122    0.0000 C   0  0  0  0  0  0  0  0  0  0  0  0
   -0.0004   -2.5091    0.0000 C   0  0  0  0  0  0  0  0  0  0  0  0
   -0.1760   -3.9988    0.0000 C   0  0  0  0  0  0  0  0  0  0  0  0
   -1.5539   -4.5916    0.0000 C   0  0  0  0  0  0  0  0  0  0  0  0
   -2.7562   -3.6947    0.0000 C   0  0  0  0  0  0  0  0  0  0  0  0
   -4.1341   -4.2874    0.0000 C   0  0  0  0  0  0  0  0  0  0  0  0
   -4.3097   -5.7771    0.0000 C   0  0  0  0  0  0  0  0  0  0  0  0
   -5.3364   -3.3905    0.0000 C   0  0  0  0  0  0  0  0  0  0  0  0
   -2.5806   -2.2050    0.0000 C   0  0  0  0  0  0  0  0  0  0  0  0
   -2.0538    2.2641    0.0000 C   0  0  0  0  0  0  0  0  0  0  0  0
  1  2  1  0
  2  3  1  0
  2  4  1  0
  4  5  2  0
  5  6  1  0
  6  7  2  0
  7  8  1  0
  8  9  1  0
  9 10  1  0
 10 11  1  0
 11 12  1  0
 12 13  2  0
 13 14  1  0
 14 15  2  0
 15 16  1  0
 16 17  1  0
 17 18  1  0
 17 19  1  0
 16 20  2  0
 10 21  1  0
 21 22  1  0
 22 23  2  0
 23 24  1  0
 24 25  2  0
 25 26  1  0
 26 27  1  0
 27 28  1  0
 27 29  1  0
 26 30  2  0
  8 31  2  0
 31  4  1  0
 20 12  1  0
 30 22  1  0
M  END
>  <linear_selectivity>  (652) 
78

>  <denticity>  (652) 
1

>  <ligand_class>  (652) 
phosphite

$$$$
P(O-2-iPr-Ph)3_90C_toluene
     RDKit          2D

 31 33  0  0  0  0  0  0  0  0999 V2000
   -5.8363    3.4651    0.0000 C   0  0  0  0  0  0  0  0  0  0  0  0
   -4.6340    2.5682    0.0000 C   0  0  0  0  0  0  0  0  0  0  0  0
   -4.8096    1.0785    0.0000 C   0  0  0  0  0  0  0  0  0  0  0  0
   -3.2561    3.1610    0.0000 C   0  0  0  0  0  0  0  0  0  0  0  0
   -3.0805    4.6507    0.0000 C   0  0  0  0  0  0  0  0  0  0  0  0
   -1.7026    5.2434    0.0000 C   0  0  0  0  0  0  0  0  0  0  0  0
   -0.5003    4.3465    0.0000 C   0  0  0  0  0  0  0  0  0  0  0  0
   -0.6759    2.8568    0.0000 C   0  0  0  0  0  0  0  0  0  0  0  0
    0.5264    1.9599    0.0000 O   0  0  0  0  0  0  0  0  0  0  0  0
    0.3508    0.4702    0.0000 P   0  0  0  0  0  0  0  0  0  0  0  0
    1.5531   -0.4267    0.0000 O   0  0  0  0  0  0  0  0  0  0  0  0
    2.9310    0.1661    0.0000 C   0  0  0  0  0  0  0  0  0  0  0  0
    3.1066    1.6558    0.0000 C   0  0  0  0  0  0  0  0  0  0  0  0
    4.4845    2.2485    0.0000 C   0  0  0  0  0  0  0  0  0  0  0  0
    5.6868    1.3516    0.0000 C   0  0  0  0  0  0  0  0  0  0  0  0
    5.5112   -0.1381    0.0000 C   0  0  0  0  0  0  0  0  0  0  0  0
    6.7135   -1.0350    0.0000 C   0  0  0  0  0  0  0  0  0  0  0  0
    8.0914   -0.4422    0.0000 C   0  0  0  0  0  0  0  0  0  0  0  0
    6.5379   -2.5247    0.0000 C   0  0  0  0  0  0  0  0  0  0  0  0
    4.1333   -0.7308    0.0000 C   0  0  0  0  0  0  0  0  0  0  0  0
   -1.0271   -0.1225    0.0000 O   0  0  0  0  0  0  0  0  0  0  0  0
   -1.2027   -1.6122    0.0000 C   0  0  0  0  0  0  0  0  0  0  0  0
   -0.0004   -2.5091    0.0000 C   0  0  0  0  0  0  0  0  0  0  0  0
   -0.1760   -3.9988    0.0000 C   0  0  0  0  0  0  0  0  0  0  0  0
   -1.5539   -4.5916    0.0000 C   0  0  0  0  0  0  0  0  0  0  0  0
   -2.7562   -3.6947    0.0000 C   0  0  0  0  0  0  0  0  0  0  0  0
   -4.1341   -4.2874    0.0000 C   0  0  0  0  0  0  0  0  0  0  0  0
   -4.3097   -5.7771    0.0000 C   0  0  0  0  0  0  0  0  0  0  0  0
   -5.3364   -3.3905    0.0000 C   0  0  0  0  0  0  0  0  0  0  0  0
   -2.5806   -2.2050    0.0000 C   0  0  0  0  0  0  0  0  0  0  0  0
   -2.0538    2.2641    0.0000 C   0  0  0  0  0  0  0  0  0  0  0  0
  1  2  1  0
  2  3  1  0
  2  4  1  0
  4  5  2  0
  5  6  1  0
  6  7  2  0
  7  8  1  0
  8  9  1  0
  9 10  1  0
 10 11  1  0
 11 12  1  0
 12 13  2  0
 13 14  1  0
 14 15  2  0
 15 16  1  0
 16 17  1  0
 17 18  1  0
 17 19  1  0
 16 20  2  0
 10 21  1  0
 21 22  1  0
 22 23  2  0
 23 24  1  0
 24 25  2  0
 25 26  1  0
 26 27  1  0
 27 28  1  0
 27 29  1  0
 26 30  2  0
  8 31  2  0
 31  4  1  0
 20 12  1  0
 30 22  1  0
M  END
>  <linear_selectivity>  (653) 
68

>  <denticity>  (653) 
1

>  <ligand_class>  (653) 
phosphite

$$$$
P(O-2-iPr-Ph)3_90C_THF
     RDKit          2D

 31 33  0  0  0  0  0  0  0  0999 V2000
   -5.8363    3.4651    0.0000 C   0  0  0  0  0  0  0  0  0  0  0  0
   -4.6340    2.5682    0.0000 C   0  0  0  0  0  0  0  0  0  0  0  0
   -4.8096    1.0785    0.0000 C   0  0  0  0  0  0  0  0  0  0  0  0
   -3.2561    3.1610    0.0000 C   0  0  0  0  0  0  0  0  0  0  0  0
   -3.0805    4.6507    0.0000 C   0  0  0  0  0  0  0  0  0  0  0  0
   -1.7026    5.2434    0.0000 C   0  0  0  0  0  0  0  0  0  0  0  0
   -0.5003    4.3465    0.0000 C   0  0  0  0  0  0  0  0  0  0  0  0
   -0.6759    2.8568    0.0000 C   0  0  0  0  0  0  0  0  0  0  0  0
    0.5264    1.9599    0.0000 O   0  0  0  0  0  0  0  0  0  0  0  0
    0.3508    0.4702    0.0000 P   0  0  0  0  0  0  0  0  0  0  0  0
    1.5531   -0.4267    0.0000 O   0  0  0  0  0  0  0  0  0  0  0  0
    2.9310    0.1661    0.0000 C   0  0  0  0  0  0  0  0  0  0  0  0
    3.1066    1.6558    0.0000 C   0  0  0  0  0  0  0  0  0  0  0  0
    4.4845    2.2485    0.0000 C   0  0  0  0  0  0  0  0  0  0  0  0
    5.6868    1.3516    0.0000 C   0  0  0  0  0  0  0  0  0  0  0  0
    5.5112   -0.1381    0.0000 C   0  0  0  0  0  0  0  0  0  0  0  0
    6.7135   -1.0350    0.0000 C   0  0  0  0  0  0  0  0  0  0  0  0
    8.0914   -0.4422    0.0000 C   0  0  0  0  0  0  0  0  0  0  0  0
    6.5379   -2.5247    0.0000 C   0  0  0  0  0  0  0  0  0  0  0  0
    4.1333   -0.7308    0.0000 C   0  0  0  0  0  0  0  0  0  0  0  0
   -1.0271   -0.1225    0.0000 O   0  0  0  0  0  0  0  0  0  0  0  0
   -1.2027   -1.6122    0.0000 C   0  0  0  0  0  0  0  0  0  0  0  0
   -0.0004   -2.5091    0.0000 C   0  0  0  0  0  0  0  0  0  0  0  0
   -0.1760   -3.9988    0.0000 C   0  0  0  0  0  0  0  0  0  0  0  0
   -1.5539   -4.5916    0.0000 C   0  0  0  0  0  0  0  0  0  0  0  0
   -2.7562   -3.6947    0.0000 C   0  0  0  0  0  0  0  0  0  0  0  0
   -4.1341   -4.2874    0.0000 C   0  0  0  0  0  0  0  0  0  0  0  0
   -4.3097   -5.7771    0.0000 C   0  0  0  0  0  0  0  0  0  0  0  0
   -5.3364   -3.3905    0.0000 C   0  0  0  0  0  0  0  0  0  0  0  0
   -2.5806   -2.2050    0.0000 C   0  0  0  0  0  0  0  0  0  0  0  0
   -2.0538    2.2641    0.0000 C   0  0  0  0  0  0  0  0  0  0  0  0
  1  2  1  0
  2  3  1  0
  2  4  1  0
  4  5  2  0
  5  6  1  0
  6  7  2  0
  7  8  1  0
  8  9  1  0
  9 10  1  0
 10 11  1  0
 11 12  1  0
 12 13  2  0
 13 14  1  0
 14 15  2  0
 15 16  1  0
 16 17  1  0
 17 18  1  0
 17 19  1  0
 16 20  2  0
 10 21  1  0
 21 22  1  0
 22 23  2  0
 23 24  1  0
 24 25  2  0
 25 26  1  0
 26 27  1  0
 27 28  1  0
 27 29  1  0
 26 30  2  0
  8 31  2  0
 31  4  1  0
 20 12  1  0
 30 22  1  0
M  END
>  <linear_selectivity>  (654) 
68

>  <denticity>  (654) 
1

>  <ligand_class>  (654) 
phosphite

$$$$
P(O-2-iPr-Ph)3_90C_hexane
     RDKit          2D

 31 33  0  0  0  0  0  0  0  0999 V2000
   -5.8363    3.4651    0.0000 C   0  0  0  0  0  0  0  0  0  0  0  0
   -4.6340    2.5682    0.0000 C   0  0  0  0  0  0  0  0  0  0  0  0
   -4.8096    1.0785    0.0000 C   0  0  0  0  0  0  0  0  0  0  0  0
   -3.2561    3.1610    0.0000 C   0  0  0  0  0  0  0  0  0  0  0  0
   -3.0805    4.6507    0.0000 C   0  0  0  0  0  0  0  0  0  0  0  0
   -1.7026    5.2434    0.0000 C   0  0  0  0  0  0  0  0  0  0  0  0
   -0.5003    4.3465    0.0000 C   0  0  0  0  0  0  0  0  0  0  0  0
   -0.6759    2.8568    0.0000 C   0  0  0  0  0  0  0  0  0  0  0  0
    0.5264    1.9599    0.0000 O   0  0  0  0  0  0  0  0  0  0  0  0
    0.3508    0.4702    0.0000 P   0  0  0  0  0  0  0  0  0  0  0  0
    1.5531   -0.4267    0.0000 O   0  0  0  0  0  0  0  0  0  0  0  0
    2.9310    0.1661    0.0000 C   0  0  0  0  0  0  0  0  0  0  0  0
    3.1066    1.6558    0.0000 C   0  0  0  0  0  0  0  0  0  0  0  0
    4.4845    2.2485    0.0000 C   0  0  0  0  0  0  0  0  0  0  0  0
    5.6868    1.3516    0.0000 C   0  0  0  0  0  0  0  0  0  0  0  0
    5.5112   -0.1381    0.0000 C   0  0  0  0  0  0  0  0  0  0  0  0
    6.7135   -1.0350    0.0000 C   0  0  0  0  0  0  0  0  0  0  0  0
    8.0914   -0.4422    0.0000 C   0  0  0  0  0  0  0  0  0  0  0  0
    6.5379   -2.5247    0.0000 C   0  0  0  0  0  0  0  0  0  0  0  0
    4.1333   -0.7308    0.0000 C   0  0  0  0  0  0  0  0  0  0  0  0
   -1.0271   -0.1225    0.0000 O   0  0  0  0  0  0  0  0  0  0  0  0
   -1.2027   -1.6122    0.0000 C   0  0  0  0  0  0  0  0  0  0  0  0
   -0.0004   -2.5091    0.0000 C   0  0  0  0  0  0  0  0  0  0  0  0
   -0.1760   -3.9988    0.0000 C   0  0  0  0  0  0  0  0  0  0  0  0
   -1.5539   -4.5916    0.0000 C   0  0  0  0  0  0  0  0  0  0  0  0
   -2.7562   -3.6947    0.0000 C   0  0  0  0  0  0  0  0  0  0  0  0
   -4.1341   -4.2874    0.0000 C   0  0  0  0  0  0  0  0  0  0  0  0
   -4.3097   -5.7771    0.0000 C   0  0  0  0  0  0  0  0  0  0  0  0
   -5.3364   -3.3905    0.0000 C   0  0  0  0  0  0  0  0  0  0  0  0
   -2.5806   -2.2050    0.0000 C   0  0  0  0  0  0  0  0  0  0  0  0
   -2.0538    2.2641    0.0000 C   0  0  0  0  0  0  0  0  0  0  0  0
  1  2  1  0
  2  3  1  0
  2  4  1  0
  4  5  2  0
  5  6  1  0
  6  7  2  0
  7  8  1  0
  8  9  1  0
  9 10  1  0
 10 11  1  0
 11 12  1  0
 12 13  2  0
 13 14  1  0
 14 15  2  0
 15 16  1  0
 16 17  1  0
 17 18  1  0
 17 19  1  0
 16 20  2  0
 10 21  1  0
 21 22  1  0
 22 23  2  0
 23 24  1  0
 24 25  2  0
 25 26  1  0
 26 27  1  0
 27 28  1  0
 27 29  1  0
 26 30  2  0
  8 31  2  0
 31  4  1  0
 20 12  1  0
 30 22  1  0
M  END
>  <linear_selectivity>  (655) 
75

>  <denticity>  (655) 
1

>  <ligand_class>  (655) 
phosphite

$$$$
P(O-2-iPr-Ph)3_90C_benzene
     RDKit          2D

 31 33  0  0  0  0  0  0  0  0999 V2000
   -5.8363    3.4651    0.0000 C   0  0  0  0  0  0  0  0  0  0  0  0
   -4.6340    2.5682    0.0000 C   0  0  0  0  0  0  0  0  0  0  0  0
   -4.8096    1.0785    0.0000 C   0  0  0  0  0  0  0  0  0  0  0  0
   -3.2561    3.1610    0.0000 C   0  0  0  0  0  0  0  0  0  0  0  0
   -3.0805    4.6507    0.0000 C   0  0  0  0  0  0  0  0  0  0  0  0
   -1.7026    5.2434    0.0000 C   0  0  0  0  0  0  0  0  0  0  0  0
   -0.5003    4.3465    0.0000 C   0  0  0  0  0  0  0  0  0  0  0  0
   -0.6759    2.8568    0.0000 C   0  0  0  0  0  0  0  0  0  0  0  0
    0.5264    1.9599    0.0000 O   0  0  0  0  0  0  0  0  0  0  0  0
    0.3508    0.4702    0.0000 P   0  0  0  0  0  0  0  0  0  0  0  0
    1.5531   -0.4267    0.0000 O   0  0  0  0  0  0  0  0  0  0  0  0
    2.9310    0.1661    0.0000 C   0  0  0  0  0  0  0  0  0  0  0  0
    3.1066    1.6558    0.0000 C   0  0  0  0  0  0  0  0  0  0  0  0
    4.4845    2.2485    0.0000 C   0  0  0  0  0  0  0  0  0  0  0  0
    5.6868    1.3516    0.0000 C   0  0  0  0  0  0  0  0  0  0  0  0
    5.5112   -0.1381    0.0000 C   0  0  0  0  0  0  0  0  0  0  0  0
    6.7135   -1.0350    0.0000 C   0  0  0  0  0  0  0  0  0  0  0  0
    8.0914   -0.4422    0.0000 C   0  0  0  0  0  0  0  0  0  0  0  0
    6.5379   -2.5247    0.0000 C   0  0  0  0  0  0  0  0  0  0  0  0
    4.1333   -0.7308    0.0000 C   0  0  0  0  0  0  0  0  0  0  0  0
   -1.0271   -0.1225    0.0000 O   0  0  0  0  0  0  0  0  0  0  0  0
   -1.2027   -1.6122    0.0000 C   0  0  0  0  0  0  0  0  0  0  0  0
   -0.0004   -2.5091    0.0000 C   0  0  0  0  0  0  0  0  0  0  0  0
   -0.1760   -3.9988    0.0000 C   0  0  0  0  0  0  0  0  0  0  0  0
   -1.5539   -4.5916    0.0000 C   0  0  0  0  0  0  0  0  0  0  0  0
   -2.7562   -3.6947    0.0000 C   0  0  0  0  0  0  0  0  0  0  0  0
   -4.1341   -4.2874    0.0000 C   0  0  0  0  0  0  0  0  0  0  0  0
   -4.3097   -5.7771    0.0000 C   0  0  0  0  0  0  0  0  0  0  0  0
   -5.3364   -3.3905    0.0000 C   0  0  0  0  0  0  0  0  0  0  0  0
   -2.5806   -2.2050    0.0000 C   0  0  0  0  0  0  0  0  0  0  0  0
   -2.0538    2.2641    0.0000 C   0  0  0  0  0  0  0  0  0  0  0  0
  1  2  1  0
  2  3  1  0
  2  4  1  0
  4  5  2  0
  5  6  1  0
  6  7  2  0
  7  8  1  0
  8  9  1  0
  9 10  1  0
 10 11  1  0
 11 12  1  0
 12 13  2  0
 13 14  1  0
 14 15  2  0
 15 16  1  0
 16 17  1  0
 17 18  1  0
 17 19  1  0
 16 20  2  0
 10 21  1  0
 21 22  1  0
 22 23  2  0
 23 24  1  0
 24 25  2  0
 25 26  1  0
 26 27  1  0
 27 28  1  0
 27 29  1  0
 26 30  2  0
  8 31  2  0
 31  4  1  0
 20 12  1  0
 30 22  1  0
M  END
>  <linear_selectivity>  (656) 
71

>  <denticity>  (656) 
1

>  <ligand_class>  (656) 
phosphite

$$$$
P(O-2-iPr-Ph)3_90C_xylene
     RDKit          2D

 31 33  0  0  0  0  0  0  0  0999 V2000
   -5.8363    3.4651    0.0000 C   0  0  0  0  0  0  0  0  0  0  0  0
   -4.6340    2.5682    0.0000 C   0  0  0  0  0  0  0  0  0  0  0  0
   -4.8096    1.0785    0.0000 C   0  0  0  0  0  0  0  0  0  0  0  0
   -3.2561    3.1610    0.0000 C   0  0  0  0  0  0  0  0  0  0  0  0
   -3.0805    4.6507    0.0000 C   0  0  0  0  0  0  0  0  0  0  0  0
   -1.7026    5.2434    0.0000 C   0  0  0  0  0  0  0  0  0  0  0  0
   -0.5003    4.3465    0.0000 C   0  0  0  0  0  0  0  0  0  0  0  0
   -0.6759    2.8568    0.0000 C   0  0  0  0  0  0  0  0  0  0  0  0
    0.5264    1.9599    0.0000 O   0  0  0  0  0  0  0  0  0  0  0  0
    0.3508    0.4702    0.0000 P   0  0  0  0  0  0  0  0  0  0  0  0
    1.5531   -0.4267    0.0000 O   0  0  0  0  0  0  0  0  0  0  0  0
    2.9310    0.1661    0.0000 C   0  0  0  0  0  0  0  0  0  0  0  0
    3.1066    1.6558    0.0000 C   0  0  0  0  0  0  0  0  0  0  0  0
    4.4845    2.2485    0.0000 C   0  0  0  0  0  0  0  0  0  0  0  0
    5.6868    1.3516    0.0000 C   0  0  0  0  0  0  0  0  0  0  0  0
    5.5112   -0.1381    0.0000 C   0  0  0  0  0  0  0  0  0  0  0  0
    6.7135   -1.0350    0.0000 C   0  0  0  0  0  0  0  0  0  0  0  0
    8.0914   -0.4422    0.0000 C   0  0  0  0  0  0  0  0  0  0  0  0
    6.5379   -2.5247    0.0000 C   0  0  0  0  0  0  0  0  0  0  0  0
    4.1333   -0.7308    0.0000 C   0  0  0  0  0  0  0  0  0  0  0  0
   -1.0271   -0.1225    0.0000 O   0  0  0  0  0  0  0  0  0  0  0  0
   -1.2027   -1.6122    0.0000 C   0  0  0  0  0  0  0  0  0  0  0  0
   -0.0004   -2.5091    0.0000 C   0  0  0  0  0  0  0  0  0  0  0  0
   -0.1760   -3.9988    0.0000 C   0  0  0  0  0  0  0  0  0  0  0  0
   -1.5539   -4.5916    0.0000 C   0  0  0  0  0  0  0  0  0  0  0  0
   -2.7562   -3.6947    0.0000 C   0  0  0  0  0  0  0  0  0  0  0  0
   -4.1341   -4.2874    0.0000 C   0  0  0  0  0  0  0  0  0  0  0  0
   -4.3097   -5.7771    0.0000 C   0  0  0  0  0  0  0  0  0  0  0  0
   -5.3364   -3.3905    0.0000 C   0  0  0  0  0  0  0  0  0  0  0  0
   -2.5806   -2.2050    0.0000 C   0  0  0  0  0  0  0  0  0  0  0  0
   -2.0538    2.2641    0.0000 C   0  0  0  0  0  0  0  0  0  0  0  0
  1  2  1  0
  2  3  1  0
  2  4  1  0
  4  5  2  0
  5  6  1  0
  6  7  2  0
  7  8  1  0
  8  9  1  0
  9 10  1  0
 10 11  1  0
 11 12  1  0
 12 13  2  0
 13 14  1  0
 14 15  2  0
 15 16  1  0
 16 17  1  0
 17 18  1  0
 17 19  1  0
 16 20  2  0
 10 21  1  0
 21 22  1  0
 22 23  2  0
 23 24  1  0
 24 25  2  0
 25 26  1  0
 26 27  1  0
 27 28  1  0
 27 29  1  0
 26 30  2  0
  8 31  2  0
 31  4  1  0
 20 12  1  0
 30 22  1  0
M  END
>  <linear_selectivity>  (657) 
70

>  <denticity>  (657) 
1

>  <ligand_class>  (657) 
phosphite

$$$$
P(O-2-iPr-Ph)3_100C_THF
     RDKit          2D

 31 33  0  0  0  0  0  0  0  0999 V2000
   -5.8363    3.4651    0.0000 C   0  0  0  0  0  0  0  0  0  0  0  0
   -4.6340    2.5682    0.0000 C   0  0  0  0  0  0  0  0  0  0  0  0
   -4.8096    1.0785    0.0000 C   0  0  0  0  0  0  0  0  0  0  0  0
   -3.2561    3.1610    0.0000 C   0  0  0  0  0  0  0  0  0  0  0  0
   -3.0805    4.6507    0.0000 C   0  0  0  0  0  0  0  0  0  0  0  0
   -1.7026    5.2434    0.0000 C   0  0  0  0  0  0  0  0  0  0  0  0
   -0.5003    4.3465    0.0000 C   0  0  0  0  0  0  0  0  0  0  0  0
   -0.6759    2.8568    0.0000 C   0  0  0  0  0  0  0  0  0  0  0  0
    0.5264    1.9599    0.0000 O   0  0  0  0  0  0  0  0  0  0  0  0
    0.3508    0.4702    0.0000 P   0  0  0  0  0  0  0  0  0  0  0  0
    1.5531   -0.4267    0.0000 O   0  0  0  0  0  0  0  0  0  0  0  0
    2.9310    0.1661    0.0000 C   0  0  0  0  0  0  0  0  0  0  0  0
    3.1066    1.6558    0.0000 C   0  0  0  0  0  0  0  0  0  0  0  0
    4.4845    2.2485    0.0000 C   0  0  0  0  0  0  0  0  0  0  0  0
    5.6868    1.3516    0.0000 C   0  0  0  0  0  0  0  0  0  0  0  0
    5.5112   -0.1381    0.0000 C   0  0  0  0  0  0  0  0  0  0  0  0
    6.7135   -1.0350    0.0000 C   0  0  0  0  0  0  0  0  0  0  0  0
    8.0914   -0.4422    0.0000 C   0  0  0  0  0  0  0  0  0  0  0  0
    6.5379   -2.5247    0.0000 C   0  0  0  0  0  0  0  0  0  0  0  0
    4.1333   -0.7308    0.0000 C   0  0  0  0  0  0  0  0  0  0  0  0
   -1.0271   -0.1225    0.0000 O   0  0  0  0  0  0  0  0  0  0  0  0
   -1.2027   -1.6122    0.0000 C   0  0  0  0  0  0  0  0  0  0  0  0
   -0.0004   -2.5091    0.0000 C   0  0  0  0  0  0  0  0  0  0  0  0
   -0.1760   -3.9988    0.0000 C   0  0  0  0  0  0  0  0  0  0  0  0
   -1.5539   -4.5916    0.0000 C   0  0  0  0  0  0  0  0  0  0  0  0
   -2.7562   -3.6947    0.0000 C   0  0  0  0  0  0  0  0  0  0  0  0
   -4.1341   -4.2874    0.0000 C   0  0  0  0  0  0  0  0  0  0  0  0
   -4.3097   -5.7771    0.0000 C   0  0  0  0  0  0  0  0  0  0  0  0
   -5.3364   -3.3905    0.0000 C   0  0  0  0  0  0  0  0  0  0  0  0
   -2.5806   -2.2050    0.0000 C   0  0  0  0  0  0  0  0  0  0  0  0
   -2.0538    2.2641    0.0000 C   0  0  0  0  0  0  0  0  0  0  0  0
  1  2  1  0
  2  3  1  0
  2  4  1  0
  4  5  2  0
  5  6  1  0
  6  7  2  0
  7  8  1  0
  8  9  1  0
  9 10  1  0
 10 11  1  0
 11 12  1  0
 12 13  2  0
 13 14  1  0
 14 15  2  0
 15 16  1  0
 16 17  1  0
 17 18  1  0
 17 19  1  0
 16 20  2  0
 10 21  1  0
 21 22  1  0
 22 23  2  0
 23 24  1  0
 24 25  2  0
 25 26  1  0
 26 27  1  0
 27 28  1  0
 27 29  1  0
 26 30  2  0
  8 31  2  0
 31  4  1  0
 20 12  1  0
 30 22  1  0
M  END
>  <linear_selectivity>  (658) 
66

>  <denticity>  (658) 
1

>  <ligand_class>  (658) 
phosphite

$$$$
P(O-2-iPr-Ph)3_100C_dioxane
     RDKit          2D

 31 33  0  0  0  0  0  0  0  0999 V2000
   -5.8363    3.4651    0.0000 C   0  0  0  0  0  0  0  0  0  0  0  0
   -4.6340    2.5682    0.0000 C   0  0  0  0  0  0  0  0  0  0  0  0
   -4.8096    1.0785    0.0000 C   0  0  0  0  0  0  0  0  0  0  0  0
   -3.2561    3.1610    0.0000 C   0  0  0  0  0  0  0  0  0  0  0  0
   -3.0805    4.6507    0.0000 C   0  0  0  0  0  0  0  0  0  0  0  0
   -1.7026    5.2434    0.0000 C   0  0  0  0  0  0  0  0  0  0  0  0
   -0.5003    4.3465    0.0000 C   0  0  0  0  0  0  0  0  0  0  0  0
   -0.6759    2.8568    0.0000 C   0  0  0  0  0  0  0  0  0  0  0  0
    0.5264    1.9599    0.0000 O   0  0  0  0  0  0  0  0  0  0  0  0
    0.3508    0.4702    0.0000 P   0  0  0  0  0  0  0  0  0  0  0  0
    1.5531   -0.4267    0.0000 O   0  0  0  0  0  0  0  0  0  0  0  0
    2.9310    0.1661    0.0000 C   0  0  0  0  0  0  0  0  0  0  0  0
    3.1066    1.6558    0.0000 C   0  0  0  0  0  0  0  0  0  0  0  0
    4.4845    2.2485    0.0000 C   0  0  0  0  0  0  0  0  0  0  0  0
    5.6868    1.3516    0.0000 C   0  0  0  0  0  0  0  0  0  0  0  0
    5.5112   -0.1381    0.0000 C   0  0  0  0  0  0  0  0  0  0  0  0
    6.7135   -1.0350    0.0000 C   0  0  0  0  0  0  0  0  0  0  0  0
    8.0914   -0.4422    0.0000 C   0  0  0  0  0  0  0  0  0  0  0  0
    6.5379   -2.5247    0.0000 C   0  0  0  0  0  0  0  0  0  0  0  0
    4.1333   -0.7308    0.0000 C   0  0  0  0  0  0  0  0  0  0  0  0
   -1.0271   -0.1225    0.0000 O   0  0  0  0  0  0  0  0  0  0  0  0
   -1.2027   -1.6122    0.0000 C   0  0  0  0  0  0  0  0  0  0  0  0
   -0.0004   -2.5091    0.0000 C   0  0  0  0  0  0  0  0  0  0  0  0
   -0.1760   -3.9988    0.0000 C   0  0  0  0  0  0  0  0  0  0  0  0
   -1.5539   -4.5916    0.0000 C   0  0  0  0  0  0  0  0  0  0  0  0
   -2.7562   -3.6947    0.0000 C   0  0  0  0  0  0  0  0  0  0  0  0
   -4.1341   -4.2874    0.0000 C   0  0  0  0  0  0  0  0  0  0  0  0
   -4.3097   -5.7771    0.0000 C   0  0  0  0  0  0  0  0  0  0  0  0
   -5.3364   -3.3905    0.0000 C   0  0  0  0  0  0  0  0  0  0  0  0
   -2.5806   -2.2050    0.0000 C   0  0  0  0  0  0  0  0  0  0  0  0
   -2.0538    2.2641    0.0000 C   0  0  0  0  0  0  0  0  0  0  0  0
  1  2  1  0
  2  3  1  0
  2  4  1  0
  4  5  2  0
  5  6  1  0
  6  7  2  0
  7  8  1  0
  8  9  1  0
  9 10  1  0
 10 11  1  0
 11 12  1  0
 12 13  2  0
 13 14  1  0
 14 15  2  0
 15 16  1  0
 16 17  1  0
 17 18  1  0
 17 19  1  0
 16 20  2  0
 10 21  1  0
 21 22  1  0
 22 23  2  0
 23 24  1  0
 24 25  2  0
 25 26  1  0
 26 27  1  0
 27 28  1  0
 27 29  1  0
 26 30  2  0
  8 31  2  0
 31  4  1  0
 20 12  1  0
 30 22  1  0
M  END
>  <linear_selectivity>  (659) 
66

>  <denticity>  (659) 
1

>  <ligand_class>  (659) 
phosphite

$$$$
P(O-2-iPr-Ph)3_100C_hexane
     RDKit          2D

 31 33  0  0  0  0  0  0  0  0999 V2000
   -5.8363    3.4651    0.0000 C   0  0  0  0  0  0  0  0  0  0  0  0
   -4.6340    2.5682    0.0000 C   0  0  0  0  0  0  0  0  0  0  0  0
   -4.8096    1.0785    0.0000 C   0  0  0  0  0  0  0  0  0  0  0  0
   -3.2561    3.1610    0.0000 C   0  0  0  0  0  0  0  0  0  0  0  0
   -3.0805    4.6507    0.0000 C   0  0  0  0  0  0  0  0  0  0  0  0
   -1.7026    5.2434    0.0000 C   0  0  0  0  0  0  0  0  0  0  0  0
   -0.5003    4.3465    0.0000 C   0  0  0  0  0  0  0  0  0  0  0  0
   -0.6759    2.8568    0.0000 C   0  0  0  0  0  0  0  0  0  0  0  0
    0.5264    1.9599    0.0000 O   0  0  0  0  0  0  0  0  0  0  0  0
    0.3508    0.4702    0.0000 P   0  0  0  0  0  0  0  0  0  0  0  0
    1.5531   -0.4267    0.0000 O   0  0  0  0  0  0  0  0  0  0  0  0
    2.9310    0.1661    0.0000 C   0  0  0  0  0  0  0  0  0  0  0  0
    3.1066    1.6558    0.0000 C   0  0  0  0  0  0  0  0  0  0  0  0
    4.4845    2.2485    0.0000 C   0  0  0  0  0  0  0  0  0  0  0  0
    5.6868    1.3516    0.0000 C   0  0  0  0  0  0  0  0  0  0  0  0
    5.5112   -0.1381    0.0000 C   0  0  0  0  0  0  0  0  0  0  0  0
    6.7135   -1.0350    0.0000 C   0  0  0  0  0  0  0  0  0  0  0  0
    8.0914   -0.4422    0.0000 C   0  0  0  0  0  0  0  0  0  0  0  0
    6.5379   -2.5247    0.0000 C   0  0  0  0  0  0  0  0  0  0  0  0
    4.1333   -0.7308    0.0000 C   0  0  0  0  0  0  0  0  0  0  0  0
   -1.0271   -0.1225    0.0000 O   0  0  0  0  0  0  0  0  0  0  0  0
   -1.2027   -1.6122    0.0000 C   0  0  0  0  0  0  0  0  0  0  0  0
   -0.0004   -2.5091    0.0000 C   0  0  0  0  0  0  0  0  0  0  0  0
   -0.1760   -3.9988    0.0000 C   0  0  0  0  0  0  0  0  0  0  0  0
   -1.5539   -4.5916    0.0000 C   0  0  0  0  0  0  0  0  0  0  0  0
   -2.7562   -3.6947    0.0000 C   0  0  0  0  0  0  0  0  0  0  0  0
   -4.1341   -4.2874    0.0000 C   0  0  0  0  0  0  0  0  0  0  0  0
   -4.3097   -5.7771    0.0000 C   0  0  0  0  0  0  0  0  0  0  0  0
   -5.3364   -3.3905    0.0000 C   0  0  0  0  0  0  0  0  0  0  0  0
   -2.5806   -2.2050    0.0000 C   0  0  0  0  0  0  0  0  0  0  0  0
   -2.0538    2.2641    0.0000 C   0  0  0  0  0  0  0  0  0  0  0  0
  1  2  1  0
  2  3  1  0
  2  4  1  0
  4  5  2  0
  5  6  1  0
  6  7  2  0
  7  8  1  0
  8  9  1  0
  9 10  1  0
 10 11  1  0
 11 12  1  0
 12 13  2  0
 13 14  1  0
 14 15  2  0
 15 16  1  0
 16 17  1  0
 17 18  1  0
 17 19  1  0
 16 20  2  0
 10 21  1  0
 21 22  1  0
 22 23  2  0
 23 24  1  0
 24 25  2  0
 25 26  1  0
 26 27  1  0
 27 28  1  0
 27 29  1  0
 26 30  2  0
  8 31  2  0
 31  4  1  0
 20 12  1  0
 30 22  1  0
M  END
>  <linear_selectivity>  (660) 
69

>  <denticity>  (660) 
1

>  <ligand_class>  (660) 
phosphite

$$$$
P(O-2-iPr-Ph)3_100C_benzene
     RDKit          2D

 31 33  0  0  0  0  0  0  0  0999 V2000
   -5.8363    3.4651    0.0000 C   0  0  0  0  0  0  0  0  0  0  0  0
   -4.6340    2.5682    0.0000 C   0  0  0  0  0  0  0  0  0  0  0  0
   -4.8096    1.0785    0.0000 C   0  0  0  0  0  0  0  0  0  0  0  0
   -3.2561    3.1610    0.0000 C   0  0  0  0  0  0  0  0  0  0  0  0
   -3.0805    4.6507    0.0000 C   0  0  0  0  0  0  0  0  0  0  0  0
   -1.7026    5.2434    0.0000 C   0  0  0  0  0  0  0  0  0  0  0  0
   -0.5003    4.3465    0.0000 C   0  0  0  0  0  0  0  0  0  0  0  0
   -0.6759    2.8568    0.0000 C   0  0  0  0  0  0  0  0  0  0  0  0
    0.5264    1.9599    0.0000 O   0  0  0  0  0  0  0  0  0  0  0  0
    0.3508    0.4702    0.0000 P   0  0  0  0  0  0  0  0  0  0  0  0
    1.5531   -0.4267    0.0000 O   0  0  0  0  0  0  0  0  0  0  0  0
    2.9310    0.1661    0.0000 C   0  0  0  0  0  0  0  0  0  0  0  0
    3.1066    1.6558    0.0000 C   0  0  0  0  0  0  0  0  0  0  0  0
    4.4845    2.2485    0.0000 C   0  0  0  0  0  0  0  0  0  0  0  0
    5.6868    1.3516    0.0000 C   0  0  0  0  0  0  0  0  0  0  0  0
    5.5112   -0.1381    0.0000 C   0  0  0  0  0  0  0  0  0  0  0  0
    6.7135   -1.0350    0.0000 C   0  0  0  0  0  0  0  0  0  0  0  0
    8.0914   -0.4422    0.0000 C   0  0  0  0  0  0  0  0  0  0  0  0
    6.5379   -2.5247    0.0000 C   0  0  0  0  0  0  0  0  0  0  0  0
    4.1333   -0.7308    0.0000 C   0  0  0  0  0  0  0  0  0  0  0  0
   -1.0271   -0.1225    0.0000 O   0  0  0  0  0  0  0  0  0  0  0  0
   -1.2027   -1.6122    0.0000 C   0  0  0  0  0  0  0  0  0  0  0  0
   -0.0004   -2.5091    0.0000 C   0  0  0  0  0  0  0  0  0  0  0  0
   -0.1760   -3.9988    0.0000 C   0  0  0  0  0  0  0  0  0  0  0  0
   -1.5539   -4.5916    0.0000 C   0  0  0  0  0  0  0  0  0  0  0  0
   -2.7562   -3.6947    0.0000 C   0  0  0  0  0  0  0  0  0  0  0  0
   -4.1341   -4.2874    0.0000 C   0  0  0  0  0  0  0  0  0  0  0  0
   -4.3097   -5.7771    0.0000 C   0  0  0  0  0  0  0  0  0  0  0  0
   -5.3364   -3.3905    0.0000 C   0  0  0  0  0  0  0  0  0  0  0  0
   -2.5806   -2.2050    0.0000 C   0  0  0  0  0  0  0  0  0  0  0  0
   -2.0538    2.2641    0.0000 C   0  0  0  0  0  0  0  0  0  0  0  0
  1  2  1  0
  2  3  1  0
  2  4  1  0
  4  5  2  0
  5  6  1  0
  6  7  2  0
  7  8  1  0
  8  9  1  0
  9 10  1  0
 10 11  1  0
 11 12  1  0
 12 13  2  0
 13 14  1  0
 14 15  2  0
 15 16  1  0
 16 17  1  0
 17 18  1  0
 17 19  1  0
 16 20  2  0
 10 21  1  0
 21 22  1  0
 22 23  2  0
 23 24  1  0
 24 25  2  0
 25 26  1  0
 26 27  1  0
 27 28  1  0
 27 29  1  0
 26 30  2  0
  8 31  2  0
 31  4  1  0
 20 12  1  0
 30 22  1  0
M  END
>  <linear_selectivity>  (661) 
69

>  <denticity>  (661) 
1

>  <ligand_class>  (661) 
phosphite

$$$$
P(O-2-iPr-Ph)3_110C_toluene
     RDKit          2D

 31 33  0  0  0  0  0  0  0  0999 V2000
   -5.8363    3.4651    0.0000 C   0  0  0  0  0  0  0  0  0  0  0  0
   -4.6340    2.5682    0.0000 C   0  0  0  0  0  0  0  0  0  0  0  0
   -4.8096    1.0785    0.0000 C   0  0  0  0  0  0  0  0  0  0  0  0
   -3.2561    3.1610    0.0000 C   0  0  0  0  0  0  0  0  0  0  0  0
   -3.0805    4.6507    0.0000 C   0  0  0  0  0  0  0  0  0  0  0  0
   -1.7026    5.2434    0.0000 C   0  0  0  0  0  0  0  0  0  0  0  0
   -0.5003    4.3465    0.0000 C   0  0  0  0  0  0  0  0  0  0  0  0
   -0.6759    2.8568    0.0000 C   0  0  0  0  0  0  0  0  0  0  0  0
    0.5264    1.9599    0.0000 O   0  0  0  0  0  0  0  0  0  0  0  0
    0.3508    0.4702    0.0000 P   0  0  0  0  0  0  0  0  0  0  0  0
    1.5531   -0.4267    0.0000 O   0  0  0  0  0  0  0  0  0  0  0  0
    2.9310    0.1661    0.0000 C   0  0  0  0  0  0  0  0  0  0  0  0
    3.1066    1.6558    0.0000 C   0  0  0  0  0  0  0  0  0  0  0  0
    4.4845    2.2485    0.0000 C   0  0  0  0  0  0  0  0  0  0  0  0
    5.6868    1.3516    0.0000 C   0  0  0  0  0  0  0  0  0  0  0  0
    5.5112   -0.1381    0.0000 C   0  0  0  0  0  0  0  0  0  0  0  0
    6.7135   -1.0350    0.0000 C   0  0  0  0  0  0  0  0  0  0  0  0
    8.0914   -0.4422    0.0000 C   0  0  0  0  0  0  0  0  0  0  0  0
    6.5379   -2.5247    0.0000 C   0  0  0  0  0  0  0  0  0  0  0  0
    4.1333   -0.7308    0.0000 C   0  0  0  0  0  0  0  0  0  0  0  0
   -1.0271   -0.1225    0.0000 O   0  0  0  0  0  0  0  0  0  0  0  0
   -1.2027   -1.6122    0.0000 C   0  0  0  0  0  0  0  0  0  0  0  0
   -0.0004   -2.5091    0.0000 C   0  0  0  0  0  0  0  0  0  0  0  0
   -0.1760   -3.9988    0.0000 C   0  0  0  0  0  0  0  0  0  0  0  0
   -1.5539   -4.5916    0.0000 C   0  0  0  0  0  0  0  0  0  0  0  0
   -2.7562   -3.6947    0.0000 C   0  0  0  0  0  0  0  0  0  0  0  0
   -4.1341   -4.2874    0.0000 C   0  0  0  0  0  0  0  0  0  0  0  0
   -4.3097   -5.7771    0.0000 C   0  0  0  0  0  0  0  0  0  0  0  0
   -5.3364   -3.3905    0.0000 C   0  0  0  0  0  0  0  0  0  0  0  0
   -2.5806   -2.2050    0.0000 C   0  0  0  0  0  0  0  0  0  0  0  0
   -2.0538    2.2641    0.0000 C   0  0  0  0  0  0  0  0  0  0  0  0
  1  2  1  0
  2  3  1  0
  2  4  1  0
  4  5  2  0
  5  6  1  0
  6  7  2  0
  7  8  1  0
  8  9  1  0
  9 10  1  0
 10 11  1  0
 11 12  1  0
 12 13  2  0
 13 14  1  0
 14 15  2  0
 15 16  1  0
 16 17  1  0
 17 18  1  0
 17 19  1  0
 16 20  2  0
 10 21  1  0
 21 22  1  0
 22 23  2  0
 23 24  1  0
 24 25  2  0
 25 26  1  0
 26 27  1  0
 27 28  1  0
 27 29  1  0
 26 30  2  0
  8 31  2  0
 31  4  1  0
 20 12  1  0
 30 22  1  0
M  END
>  <linear_selectivity>  (662) 
67

>  <denticity>  (662) 
1

>  <ligand_class>  (662) 
phosphite

$$$$
P(O-2-iPr-Ph)3_110C_dioxane
     RDKit          2D

 31 33  0  0  0  0  0  0  0  0999 V2000
   -5.8363    3.4651    0.0000 C   0  0  0  0  0  0  0  0  0  0  0  0
   -4.6340    2.5682    0.0000 C   0  0  0  0  0  0  0  0  0  0  0  0
   -4.8096    1.0785    0.0000 C   0  0  0  0  0  0  0  0  0  0  0  0
   -3.2561    3.1610    0.0000 C   0  0  0  0  0  0  0  0  0  0  0  0
   -3.0805    4.6507    0.0000 C   0  0  0  0  0  0  0  0  0  0  0  0
   -1.7026    5.2434    0.0000 C   0  0  0  0  0  0  0  0  0  0  0  0
   -0.5003    4.3465    0.0000 C   0  0  0  0  0  0  0  0  0  0  0  0
   -0.6759    2.8568    0.0000 C   0  0  0  0  0  0  0  0  0  0  0  0
    0.5264    1.9599    0.0000 O   0  0  0  0  0  0  0  0  0  0  0  0
    0.3508    0.4702    0.0000 P   0  0  0  0  0  0  0  0  0  0  0  0
    1.5531   -0.4267    0.0000 O   0  0  0  0  0  0  0  0  0  0  0  0
    2.9310    0.1661    0.0000 C   0  0  0  0  0  0  0  0  0  0  0  0
    3.1066    1.6558    0.0000 C   0  0  0  0  0  0  0  0  0  0  0  0
    4.4845    2.2485    0.0000 C   0  0  0  0  0  0  0  0  0  0  0  0
    5.6868    1.3516    0.0000 C   0  0  0  0  0  0  0  0  0  0  0  0
    5.5112   -0.1381    0.0000 C   0  0  0  0  0  0  0  0  0  0  0  0
    6.7135   -1.0350    0.0000 C   0  0  0  0  0  0  0  0  0  0  0  0
    8.0914   -0.4422    0.0000 C   0  0  0  0  0  0  0  0  0  0  0  0
    6.5379   -2.5247    0.0000 C   0  0  0  0  0  0  0  0  0  0  0  0
    4.1333   -0.7308    0.0000 C   0  0  0  0  0  0  0  0  0  0  0  0
   -1.0271   -0.1225    0.0000 O   0  0  0  0  0  0  0  0  0  0  0  0
   -1.2027   -1.6122    0.0000 C   0  0  0  0  0  0  0  0  0  0  0  0
   -0.0004   -2.5091    0.0000 C   0  0  0  0  0  0  0  0  0  0  0  0
   -0.1760   -3.9988    0.0000 C   0  0  0  0  0  0  0  0  0  0  0  0
   -1.5539   -4.5916    0.0000 C   0  0  0  0  0  0  0  0  0  0  0  0
   -2.7562   -3.6947    0.0000 C   0  0  0  0  0  0  0  0  0  0  0  0
   -4.1341   -4.2874    0.0000 C   0  0  0  0  0  0  0  0  0  0  0  0
   -4.3097   -5.7771    0.0000 C   0  0  0  0  0  0  0  0  0  0  0  0
   -5.3364   -3.3905    0.0000 C   0  0  0  0  0  0  0  0  0  0  0  0
   -2.5806   -2.2050    0.0000 C   0  0  0  0  0  0  0  0  0  0  0  0
   -2.0538    2.2641    0.0000 C   0  0  0  0  0  0  0  0  0  0  0  0
  1  2  1  0
  2  3  1  0
  2  4  1  0
  4  5  2  0
  5  6  1  0
  6  7  2  0
  7  8  1  0
  8  9  1  0
  9 10  1  0
 10 11  1  0
 11 12  1  0
 12 13  2  0
 13 14  1  0
 14 15  2  0
 15 16  1  0
 16 17  1  0
 17 18  1  0
 17 19  1  0
 16 20  2  0
 10 21  1  0
 21 22  1  0
 22 23  2  0
 23 24  1  0
 24 25  2  0
 25 26  1  0
 26 27  1  0
 27 28  1  0
 27 29  1  0
 26 30  2  0
  8 31  2  0
 31  4  1  0
 20 12  1  0
 30 22  1  0
M  END
>  <linear_selectivity>  (663) 
65

>  <denticity>  (663) 
1

>  <ligand_class>  (663) 
phosphite

$$$$
P(O-2-iPr-Ph)3_110C_benzene
     RDKit          2D

 31 33  0  0  0  0  0  0  0  0999 V2000
   -5.8363    3.4651    0.0000 C   0  0  0  0  0  0  0  0  0  0  0  0
   -4.6340    2.5682    0.0000 C   0  0  0  0  0  0  0  0  0  0  0  0
   -4.8096    1.0785    0.0000 C   0  0  0  0  0  0  0  0  0  0  0  0
   -3.2561    3.1610    0.0000 C   0  0  0  0  0  0  0  0  0  0  0  0
   -3.0805    4.6507    0.0000 C   0  0  0  0  0  0  0  0  0  0  0  0
   -1.7026    5.2434    0.0000 C   0  0  0  0  0  0  0  0  0  0  0  0
   -0.5003    4.3465    0.0000 C   0  0  0  0  0  0  0  0  0  0  0  0
   -0.6759    2.8568    0.0000 C   0  0  0  0  0  0  0  0  0  0  0  0
    0.5264    1.9599    0.0000 O   0  0  0  0  0  0  0  0  0  0  0  0
    0.3508    0.4702    0.0000 P   0  0  0  0  0  0  0  0  0  0  0  0
    1.5531   -0.4267    0.0000 O   0  0  0  0  0  0  0  0  0  0  0  0
    2.9310    0.1661    0.0000 C   0  0  0  0  0  0  0  0  0  0  0  0
    3.1066    1.6558    0.0000 C   0  0  0  0  0  0  0  0  0  0  0  0
    4.4845    2.2485    0.0000 C   0  0  0  0  0  0  0  0  0  0  0  0
    5.6868    1.3516    0.0000 C   0  0  0  0  0  0  0  0  0  0  0  0
    5.5112   -0.1381    0.0000 C   0  0  0  0  0  0  0  0  0  0  0  0
    6.7135   -1.0350    0.0000 C   0  0  0  0  0  0  0  0  0  0  0  0
    8.0914   -0.4422    0.0000 C   0  0  0  0  0  0  0  0  0  0  0  0
    6.5379   -2.5247    0.0000 C   0  0  0  0  0  0  0  0  0  0  0  0
    4.1333   -0.7308    0.0000 C   0  0  0  0  0  0  0  0  0  0  0  0
   -1.0271   -0.1225    0.0000 O   0  0  0  0  0  0  0  0  0  0  0  0
   -1.2027   -1.6122    0.0000 C   0  0  0  0  0  0  0  0  0  0  0  0
   -0.0004   -2.5091    0.0000 C   0  0  0  0  0  0  0  0  0  0  0  0
   -0.1760   -3.9988    0.0000 C   0  0  0  0  0  0  0  0  0  0  0  0
   -1.5539   -4.5916    0.0000 C   0  0  0  0  0  0  0  0  0  0  0  0
   -2.7562   -3.6947    0.0000 C   0  0  0  0  0  0  0  0  0  0  0  0
   -4.1341   -4.2874    0.0000 C   0  0  0  0  0  0  0  0  0  0  0  0
   -4.3097   -5.7771    0.0000 C   0  0  0  0  0  0  0  0  0  0  0  0
   -5.3364   -3.3905    0.0000 C   0  0  0  0  0  0  0  0  0  0  0  0
   -2.5806   -2.2050    0.0000 C   0  0  0  0  0  0  0  0  0  0  0  0
   -2.0538    2.2641    0.0000 C   0  0  0  0  0  0  0  0  0  0  0  0
  1  2  1  0
  2  3  1  0
  2  4  1  0
  4  5  2  0
  5  6  1  0
  6  7  2  0
  7  8  1  0
  8  9  1  0
  9 10  1  0
 10 11  1  0
 11 12  1  0
 12 13  2  0
 13 14  1  0
 14 15  2  0
 15 16  1  0
 16 17  1  0
 17 18  1  0
 17 19  1  0
 16 20  2  0
 10 21  1  0
 21 22  1  0
 22 23  2  0
 23 24  1  0
 24 25  2  0
 25 26  1  0
 26 27  1  0
 27 28  1  0
 27 29  1  0
 26 30  2  0
  8 31  2  0
 31  4  1  0
 20 12  1  0
 30 22  1  0
M  END
>  <linear_selectivity>  (664) 
65

>  <denticity>  (664) 
1

>  <ligand_class>  (664) 
phosphite

$$$$
P(O-2-iPr-Ph)3_110C_xylene
     RDKit          2D

 31 33  0  0  0  0  0  0  0  0999 V2000
   -5.8363    3.4651    0.0000 C   0  0  0  0  0  0  0  0  0  0  0  0
   -4.6340    2.5682    0.0000 C   0  0  0  0  0  0  0  0  0  0  0  0
   -4.8096    1.0785    0.0000 C   0  0  0  0  0  0  0  0  0  0  0  0
   -3.2561    3.1610    0.0000 C   0  0  0  0  0  0  0  0  0  0  0  0
   -3.0805    4.6507    0.0000 C   0  0  0  0  0  0  0  0  0  0  0  0
   -1.7026    5.2434    0.0000 C   0  0  0  0  0  0  0  0  0  0  0  0
   -0.5003    4.3465    0.0000 C   0  0  0  0  0  0  0  0  0  0  0  0
   -0.6759    2.8568    0.0000 C   0  0  0  0  0  0  0  0  0  0  0  0
    0.5264    1.9599    0.0000 O   0  0  0  0  0  0  0  0  0  0  0  0
    0.3508    0.4702    0.0000 P   0  0  0  0  0  0  0  0  0  0  0  0
    1.5531   -0.4267    0.0000 O   0  0  0  0  0  0  0  0  0  0  0  0
    2.9310    0.1661    0.0000 C   0  0  0  0  0  0  0  0  0  0  0  0
    3.1066    1.6558    0.0000 C   0  0  0  0  0  0  0  0  0  0  0  0
    4.4845    2.2485    0.0000 C   0  0  0  0  0  0  0  0  0  0  0  0
    5.6868    1.3516    0.0000 C   0  0  0  0  0  0  0  0  0  0  0  0
    5.5112   -0.1381    0.0000 C   0  0  0  0  0  0  0  0  0  0  0  0
    6.7135   -1.0350    0.0000 C   0  0  0  0  0  0  0  0  0  0  0  0
    8.0914   -0.4422    0.0000 C   0  0  0  0  0  0  0  0  0  0  0  0
    6.5379   -2.5247    0.0000 C   0  0  0  0  0  0  0  0  0  0  0  0
    4.1333   -0.7308    0.0000 C   0  0  0  0  0  0  0  0  0  0  0  0
   -1.0271   -0.1225    0.0000 O   0  0  0  0  0  0  0  0  0  0  0  0
   -1.2027   -1.6122    0.0000 C   0  0  0  0  0  0  0  0  0  0  0  0
   -0.0004   -2.5091    0.0000 C   0  0  0  0  0  0  0  0  0  0  0  0
   -0.1760   -3.9988    0.0000 C   0  0  0  0  0  0  0  0  0  0  0  0
   -1.5539   -4.5916    0.0000 C   0  0  0  0  0  0  0  0  0  0  0  0
   -2.7562   -3.6947    0.0000 C   0  0  0  0  0  0  0  0  0  0  0  0
   -4.1341   -4.2874    0.0000 C   0  0  0  0  0  0  0  0  0  0  0  0
   -4.3097   -5.7771    0.0000 C   0  0  0  0  0  0  0  0  0  0  0  0
   -5.3364   -3.3905    0.0000 C   0  0  0  0  0  0  0  0  0  0  0  0
   -2.5806   -2.2050    0.0000 C   0  0  0  0  0  0  0  0  0  0  0  0
   -2.0538    2.2641    0.0000 C   0  0  0  0  0  0  0  0  0  0  0  0
  1  2  1  0
  2  3  1  0
  2  4  1  0
  4  5  2  0
  5  6  1  0
  6  7  2  0
  7  8  1  0
  8  9  1  0
  9 10  1  0
 10 11  1  0
 11 12  1  0
 12 13  2  0
 13 14  1  0
 14 15  2  0
 15 16  1  0
 16 17  1  0
 17 18  1  0
 17 19  1  0
 16 20  2  0
 10 21  1  0
 21 22  1  0
 22 23  2  0
 23 24  1  0
 24 25  2  0
 25 26  1  0
 26 27  1  0
 27 28  1  0
 27 29  1  0
 26 30  2  0
  8 31  2  0
 31  4  1  0
 20 12  1  0
 30 22  1  0
M  END
>  <linear_selectivity>  (665) 
67

>  <denticity>  (665) 
1

>  <ligand_class>  (665) 
phosphite

$$$$
P(O-2-iPr-Ph)3_120C_toluene
     RDKit          2D

 31 33  0  0  0  0  0  0  0  0999 V2000
   -5.8363    3.4651    0.0000 C   0  0  0  0  0  0  0  0  0  0  0  0
   -4.6340    2.5682    0.0000 C   0  0  0  0  0  0  0  0  0  0  0  0
   -4.8096    1.0785    0.0000 C   0  0  0  0  0  0  0  0  0  0  0  0
   -3.2561    3.1610    0.0000 C   0  0  0  0  0  0  0  0  0  0  0  0
   -3.0805    4.6507    0.0000 C   0  0  0  0  0  0  0  0  0  0  0  0
   -1.7026    5.2434    0.0000 C   0  0  0  0  0  0  0  0  0  0  0  0
   -0.5003    4.3465    0.0000 C   0  0  0  0  0  0  0  0  0  0  0  0
   -0.6759    2.8568    0.0000 C   0  0  0  0  0  0  0  0  0  0  0  0
    0.5264    1.9599    0.0000 O   0  0  0  0  0  0  0  0  0  0  0  0
    0.3508    0.4702    0.0000 P   0  0  0  0  0  0  0  0  0  0  0  0
    1.5531   -0.4267    0.0000 O   0  0  0  0  0  0  0  0  0  0  0  0
    2.9310    0.1661    0.0000 C   0  0  0  0  0  0  0  0  0  0  0  0
    3.1066    1.6558    0.0000 C   0  0  0  0  0  0  0  0  0  0  0  0
    4.4845    2.2485    0.0000 C   0  0  0  0  0  0  0  0  0  0  0  0
    5.6868    1.3516    0.0000 C   0  0  0  0  0  0  0  0  0  0  0  0
    5.5112   -0.1381    0.0000 C   0  0  0  0  0  0  0  0  0  0  0  0
    6.7135   -1.0350    0.0000 C   0  0  0  0  0  0  0  0  0  0  0  0
    8.0914   -0.4422    0.0000 C   0  0  0  0  0  0  0  0  0  0  0  0
    6.5379   -2.5247    0.0000 C   0  0  0  0  0  0  0  0  0  0  0  0
    4.1333   -0.7308    0.0000 C   0  0  0  0  0  0  0  0  0  0  0  0
   -1.0271   -0.1225    0.0000 O   0  0  0  0  0  0  0  0  0  0  0  0
   -1.2027   -1.6122    0.0000 C   0  0  0  0  0  0  0  0  0  0  0  0
   -0.0004   -2.5091    0.0000 C   0  0  0  0  0  0  0  0  0  0  0  0
   -0.1760   -3.9988    0.0000 C   0  0  0  0  0  0  0  0  0  0  0  0
   -1.5539   -4.5916    0.0000 C   0  0  0  0  0  0  0  0  0  0  0  0
   -2.7562   -3.6947    0.0000 C   0  0  0  0  0  0  0  0  0  0  0  0
   -4.1341   -4.2874    0.0000 C   0  0  0  0  0  0  0  0  0  0  0  0
   -4.3097   -5.7771    0.0000 C   0  0  0  0  0  0  0  0  0  0  0  0
   -5.3364   -3.3905    0.0000 C   0  0  0  0  0  0  0  0  0  0  0  0
   -2.5806   -2.2050    0.0000 C   0  0  0  0  0  0  0  0  0  0  0  0
   -2.0538    2.2641    0.0000 C   0  0  0  0  0  0  0  0  0  0  0  0
  1  2  1  0
  2  3  1  0
  2  4  1  0
  4  5  2  0
  5  6  1  0
  6  7  2  0
  7  8  1  0
  8  9  1  0
  9 10  1  0
 10 11  1  0
 11 12  1  0
 12 13  2  0
 13 14  1  0
 14 15  2  0
 15 16  1  0
 16 17  1  0
 17 18  1  0
 17 19  1  0
 16 20  2  0
 10 21  1  0
 21 22  1  0
 22 23  2  0
 23 24  1  0
 24 25  2  0
 25 26  1  0
 26 27  1  0
 27 28  1  0
 27 29  1  0
 26 30  2  0
  8 31  2  0
 31  4  1  0
 20 12  1  0
 30 22  1  0
M  END
>  <linear_selectivity>  (666) 
65

>  <denticity>  (666) 
1

>  <ligand_class>  (666) 
phosphite

$$$$
P(O-2-iPr-Ph)3_120C_THF
     RDKit          2D

 31 33  0  0  0  0  0  0  0  0999 V2000
   -5.8363    3.4651    0.0000 C   0  0  0  0  0  0  0  0  0  0  0  0
   -4.6340    2.5682    0.0000 C   0  0  0  0  0  0  0  0  0  0  0  0
   -4.8096    1.0785    0.0000 C   0  0  0  0  0  0  0  0  0  0  0  0
   -3.2561    3.1610    0.0000 C   0  0  0  0  0  0  0  0  0  0  0  0
   -3.0805    4.6507    0.0000 C   0  0  0  0  0  0  0  0  0  0  0  0
   -1.7026    5.2434    0.0000 C   0  0  0  0  0  0  0  0  0  0  0  0
   -0.5003    4.3465    0.0000 C   0  0  0  0  0  0  0  0  0  0  0  0
   -0.6759    2.8568    0.0000 C   0  0  0  0  0  0  0  0  0  0  0  0
    0.5264    1.9599    0.0000 O   0  0  0  0  0  0  0  0  0  0  0  0
    0.3508    0.4702    0.0000 P   0  0  0  0  0  0  0  0  0  0  0  0
    1.5531   -0.4267    0.0000 O   0  0  0  0  0  0  0  0  0  0  0  0
    2.9310    0.1661    0.0000 C   0  0  0  0  0  0  0  0  0  0  0  0
    3.1066    1.6558    0.0000 C   0  0  0  0  0  0  0  0  0  0  0  0
    4.4845    2.2485    0.0000 C   0  0  0  0  0  0  0  0  0  0  0  0
    5.6868    1.3516    0.0000 C   0  0  0  0  0  0  0  0  0  0  0  0
    5.5112   -0.1381    0.0000 C   0  0  0  0  0  0  0  0  0  0  0  0
    6.7135   -1.0350    0.0000 C   0  0  0  0  0  0  0  0  0  0  0  0
    8.0914   -0.4422    0.0000 C   0  0  0  0  0  0  0  0  0  0  0  0
    6.5379   -2.5247    0.0000 C   0  0  0  0  0  0  0  0  0  0  0  0
    4.1333   -0.7308    0.0000 C   0  0  0  0  0  0  0  0  0  0  0  0
   -1.0271   -0.1225    0.0000 O   0  0  0  0  0  0  0  0  0  0  0  0
   -1.2027   -1.6122    0.0000 C   0  0  0  0  0  0  0  0  0  0  0  0
   -0.0004   -2.5091    0.0000 C   0  0  0  0  0  0  0  0  0  0  0  0
   -0.1760   -3.9988    0.0000 C   0  0  0  0  0  0  0  0  0  0  0  0
   -1.5539   -4.5916    0.0000 C   0  0  0  0  0  0  0  0  0  0  0  0
   -2.7562   -3.6947    0.0000 C   0  0  0  0  0  0  0  0  0  0  0  0
   -4.1341   -4.2874    0.0000 C   0  0  0  0  0  0  0  0  0  0  0  0
   -4.3097   -5.7771    0.0000 C   0  0  0  0  0  0  0  0  0  0  0  0
   -5.3364   -3.3905    0.0000 C   0  0  0  0  0  0  0  0  0  0  0  0
   -2.5806   -2.2050    0.0000 C   0  0  0  0  0  0  0  0  0  0  0  0
   -2.0538    2.2641    0.0000 C   0  0  0  0  0  0  0  0  0  0  0  0
  1  2  1  0
  2  3  1  0
  2  4  1  0
  4  5  2  0
  5  6  1  0
  6  7  2  0
  7  8  1  0
  8  9  1  0
  9 10  1  0
 10 11  1  0
 11 12  1  0
 12 13  2  0
 13 14  1  0
 14 15  2  0
 15 16  1  0
 16 17  1  0
 17 18  1  0
 17 19  1  0
 16 20  2  0
 10 21  1  0
 21 22  1  0
 22 23  2  0
 23 24  1  0
 24 25  2  0
 25 26  1  0
 26 27  1  0
 27 28  1  0
 27 29  1  0
 26 30  2  0
  8 31  2  0
 31  4  1  0
 20 12  1  0
 30 22  1  0
M  END
>  <linear_selectivity>  (667) 
62

>  <denticity>  (667) 
1

>  <ligand_class>  (667) 
phosphite

$$$$
P(O-2-iPr-Ph)3_120C_dioxane
     RDKit          2D

 31 33  0  0  0  0  0  0  0  0999 V2000
   -5.8363    3.4651    0.0000 C   0  0  0  0  0  0  0  0  0  0  0  0
   -4.6340    2.5682    0.0000 C   0  0  0  0  0  0  0  0  0  0  0  0
   -4.8096    1.0785    0.0000 C   0  0  0  0  0  0  0  0  0  0  0  0
   -3.2561    3.1610    0.0000 C   0  0  0  0  0  0  0  0  0  0  0  0
   -3.0805    4.6507    0.0000 C   0  0  0  0  0  0  0  0  0  0  0  0
   -1.7026    5.2434    0.0000 C   0  0  0  0  0  0  0  0  0  0  0  0
   -0.5003    4.3465    0.0000 C   0  0  0  0  0  0  0  0  0  0  0  0
   -0.6759    2.8568    0.0000 C   0  0  0  0  0  0  0  0  0  0  0  0
    0.5264    1.9599    0.0000 O   0  0  0  0  0  0  0  0  0  0  0  0
    0.3508    0.4702    0.0000 P   0  0  0  0  0  0  0  0  0  0  0  0
    1.5531   -0.4267    0.0000 O   0  0  0  0  0  0  0  0  0  0  0  0
    2.9310    0.1661    0.0000 C   0  0  0  0  0  0  0  0  0  0  0  0
    3.1066    1.6558    0.0000 C   0  0  0  0  0  0  0  0  0  0  0  0
    4.4845    2.2485    0.0000 C   0  0  0  0  0  0  0  0  0  0  0  0
    5.6868    1.3516    0.0000 C   0  0  0  0  0  0  0  0  0  0  0  0
    5.5112   -0.1381    0.0000 C   0  0  0  0  0  0  0  0  0  0  0  0
    6.7135   -1.0350    0.0000 C   0  0  0  0  0  0  0  0  0  0  0  0
    8.0914   -0.4422    0.0000 C   0  0  0  0  0  0  0  0  0  0  0  0
    6.5379   -2.5247    0.0000 C   0  0  0  0  0  0  0  0  0  0  0  0
    4.1333   -0.7308    0.0000 C   0  0  0  0  0  0  0  0  0  0  0  0
   -1.0271   -0.1225    0.0000 O   0  0  0  0  0  0  0  0  0  0  0  0
   -1.2027   -1.6122    0.0000 C   0  0  0  0  0  0  0  0  0  0  0  0
   -0.0004   -2.5091    0.0000 C   0  0  0  0  0  0  0  0  0  0  0  0
   -0.1760   -3.9988    0.0000 C   0  0  0  0  0  0  0  0  0  0  0  0
   -1.5539   -4.5916    0.0000 C   0  0  0  0  0  0  0  0  0  0  0  0
   -2.7562   -3.6947    0.0000 C   0  0  0  0  0  0  0  0  0  0  0  0
   -4.1341   -4.2874    0.0000 C   0  0  0  0  0  0  0  0  0  0  0  0
   -4.3097   -5.7771    0.0000 C   0  0  0  0  0  0  0  0  0  0  0  0
   -5.3364   -3.3905    0.0000 C   0  0  0  0  0  0  0  0  0  0  0  0
   -2.5806   -2.2050    0.0000 C   0  0  0  0  0  0  0  0  0  0  0  0
   -2.0538    2.2641    0.0000 C   0  0  0  0  0  0  0  0  0  0  0  0
  1  2  1  0
  2  3  1  0
  2  4  1  0
  4  5  2  0
  5  6  1  0
  6  7  2  0
  7  8  1  0
  8  9  1  0
  9 10  1  0
 10 11  1  0
 11 12  1  0
 12 13  2  0
 13 14  1  0
 14 15  2  0
 15 16  1  0
 16 17  1  0
 17 18  1  0
 17 19  1  0
 16 20  2  0
 10 21  1  0
 21 22  1  0
 22 23  2  0
 23 24  1  0
 24 25  2  0
 25 26  1  0
 26 27  1  0
 27 28  1  0
 27 29  1  0
 26 30  2  0
  8 31  2  0
 31  4  1  0
 20 12  1  0
 30 22  1  0
M  END
>  <linear_selectivity>  (668) 
60

>  <denticity>  (668) 
1

>  <ligand_class>  (668) 
phosphite

$$$$
P(O-2-iPr-Ph)3_120C_hexane
     RDKit          2D

 31 33  0  0  0  0  0  0  0  0999 V2000
   -5.8363    3.4651    0.0000 C   0  0  0  0  0  0  0  0  0  0  0  0
   -4.6340    2.5682    0.0000 C   0  0  0  0  0  0  0  0  0  0  0  0
   -4.8096    1.0785    0.0000 C   0  0  0  0  0  0  0  0  0  0  0  0
   -3.2561    3.1610    0.0000 C   0  0  0  0  0  0  0  0  0  0  0  0
   -3.0805    4.6507    0.0000 C   0  0  0  0  0  0  0  0  0  0  0  0
   -1.7026    5.2434    0.0000 C   0  0  0  0  0  0  0  0  0  0  0  0
   -0.5003    4.3465    0.0000 C   0  0  0  0  0  0  0  0  0  0  0  0
   -0.6759    2.8568    0.0000 C   0  0  0  0  0  0  0  0  0  0  0  0
    0.5264    1.9599    0.0000 O   0  0  0  0  0  0  0  0  0  0  0  0
    0.3508    0.4702    0.0000 P   0  0  0  0  0  0  0  0  0  0  0  0
    1.5531   -0.4267    0.0000 O   0  0  0  0  0  0  0  0  0  0  0  0
    2.9310    0.1661    0.0000 C   0  0  0  0  0  0  0  0  0  0  0  0
    3.1066    1.6558    0.0000 C   0  0  0  0  0  0  0  0  0  0  0  0
    4.4845    2.2485    0.0000 C   0  0  0  0  0  0  0  0  0  0  0  0
    5.6868    1.3516    0.0000 C   0  0  0  0  0  0  0  0  0  0  0  0
    5.5112   -0.1381    0.0000 C   0  0  0  0  0  0  0  0  0  0  0  0
    6.7135   -1.0350    0.0000 C   0  0  0  0  0  0  0  0  0  0  0  0
    8.0914   -0.4422    0.0000 C   0  0  0  0  0  0  0  0  0  0  0  0
    6.5379   -2.5247    0.0000 C   0  0  0  0  0  0  0  0  0  0  0  0
    4.1333   -0.7308    0.0000 C   0  0  0  0  0  0  0  0  0  0  0  0
   -1.0271   -0.1225    0.0000 O   0  0  0  0  0  0  0  0  0  0  0  0
   -1.2027   -1.6122    0.0000 C   0  0  0  0  0  0  0  0  0  0  0  0
   -0.0004   -2.5091    0.0000 C   0  0  0  0  0  0  0  0  0  0  0  0
   -0.1760   -3.9988    0.0000 C   0  0  0  0  0  0  0  0  0  0  0  0
   -1.5539   -4.5916    0.0000 C   0  0  0  0  0  0  0  0  0  0  0  0
   -2.7562   -3.6947    0.0000 C   0  0  0  0  0  0  0  0  0  0  0  0
   -4.1341   -4.2874    0.0000 C   0  0  0  0  0  0  0  0  0  0  0  0
   -4.3097   -5.7771    0.0000 C   0  0  0  0  0  0  0  0  0  0  0  0
   -5.3364   -3.3905    0.0000 C   0  0  0  0  0  0  0  0  0  0  0  0
   -2.5806   -2.2050    0.0000 C   0  0  0  0  0  0  0  0  0  0  0  0
   -2.0538    2.2641    0.0000 C   0  0  0  0  0  0  0  0  0  0  0  0
  1  2  1  0
  2  3  1  0
  2  4  1  0
  4  5  2  0
  5  6  1  0
  6  7  2  0
  7  8  1  0
  8  9  1  0
  9 10  1  0
 10 11  1  0
 11 12  1  0
 12 13  2  0
 13 14  1  0
 14 15  2  0
 15 16  1  0
 16 17  1  0
 17 18  1  0
 17 19  1  0
 16 20  2  0
 10 21  1  0
 21 22  1  0
 22 23  2  0
 23 24  1  0
 24 25  2  0
 25 26  1  0
 26 27  1  0
 27 28  1  0
 27 29  1  0
 26 30  2  0
  8 31  2  0
 31  4  1  0
 20 12  1  0
 30 22  1  0
M  END
>  <linear_selectivity>  (669) 
62

>  <denticity>  (669) 
1

>  <ligand_class>  (669) 
phosphite

$$$$
P(O-2-iPr-Ph)3_120C_benzene
     RDKit          2D

 31 33  0  0  0  0  0  0  0  0999 V2000
   -5.8363    3.4651    0.0000 C   0  0  0  0  0  0  0  0  0  0  0  0
   -4.6340    2.5682    0.0000 C   0  0  0  0  0  0  0  0  0  0  0  0
   -4.8096    1.0785    0.0000 C   0  0  0  0  0  0  0  0  0  0  0  0
   -3.2561    3.1610    0.0000 C   0  0  0  0  0  0  0  0  0  0  0  0
   -3.0805    4.6507    0.0000 C   0  0  0  0  0  0  0  0  0  0  0  0
   -1.7026    5.2434    0.0000 C   0  0  0  0  0  0  0  0  0  0  0  0
   -0.5003    4.3465    0.0000 C   0  0  0  0  0  0  0  0  0  0  0  0
   -0.6759    2.8568    0.0000 C   0  0  0  0  0  0  0  0  0  0  0  0
    0.5264    1.9599    0.0000 O   0  0  0  0  0  0  0  0  0  0  0  0
    0.3508    0.4702    0.0000 P   0  0  0  0  0  0  0  0  0  0  0  0
    1.5531   -0.4267    0.0000 O   0  0  0  0  0  0  0  0  0  0  0  0
    2.9310    0.1661    0.0000 C   0  0  0  0  0  0  0  0  0  0  0  0
    3.1066    1.6558    0.0000 C   0  0  0  0  0  0  0  0  0  0  0  0
    4.4845    2.2485    0.0000 C   0  0  0  0  0  0  0  0  0  0  0  0
    5.6868    1.3516    0.0000 C   0  0  0  0  0  0  0  0  0  0  0  0
    5.5112   -0.1381    0.0000 C   0  0  0  0  0  0  0  0  0  0  0  0
    6.7135   -1.0350    0.0000 C   0  0  0  0  0  0  0  0  0  0  0  0
    8.0914   -0.4422    0.0000 C   0  0  0  0  0  0  0  0  0  0  0  0
    6.5379   -2.5247    0.0000 C   0  0  0  0  0  0  0  0  0  0  0  0
    4.1333   -0.7308    0.0000 C   0  0  0  0  0  0  0  0  0  0  0  0
   -1.0271   -0.1225    0.0000 O   0  0  0  0  0  0  0  0  0  0  0  0
   -1.2027   -1.6122    0.0000 C   0  0  0  0  0  0  0  0  0  0  0  0
   -0.0004   -2.5091    0.0000 C   0  0  0  0  0  0  0  0  0  0  0  0
   -0.1760   -3.9988    0.0000 C   0  0  0  0  0  0  0  0  0  0  0  0
   -1.5539   -4.5916    0.0000 C   0  0  0  0  0  0  0  0  0  0  0  0
   -2.7562   -3.6947    0.0000 C   0  0  0  0  0  0  0  0  0  0  0  0
   -4.1341   -4.2874    0.0000 C   0  0  0  0  0  0  0  0  0  0  0  0
   -4.3097   -5.7771    0.0000 C   0  0  0  0  0  0  0  0  0  0  0  0
   -5.3364   -3.3905    0.0000 C   0  0  0  0  0  0  0  0  0  0  0  0
   -2.5806   -2.2050    0.0000 C   0  0  0  0  0  0  0  0  0  0  0  0
   -2.0538    2.2641    0.0000 C   0  0  0  0  0  0  0  0  0  0  0  0
  1  2  1  0
  2  3  1  0
  2  4  1  0
  4  5  2  0
  5  6  1  0
  6  7  2  0
  7  8  1  0
  8  9  1  0
  9 10  1  0
 10 11  1  0
 11 12  1  0
 12 13  2  0
 13 14  1  0
 14 15  2  0
 15 16  1  0
 16 17  1  0
 17 18  1  0
 17 19  1  0
 16 20  2  0
 10 21  1  0
 21 22  1  0
 22 23  2  0
 23 24  1  0
 24 25  2  0
 25 26  1  0
 26 27  1  0
 27 28  1  0
 27 29  1  0
 26 30  2  0
  8 31  2  0
 31  4  1  0
 20 12  1  0
 30 22  1  0
M  END
>  <linear_selectivity>  (670) 
61

>  <denticity>  (670) 
1

>  <ligand_class>  (670) 
phosphite

$$$$
P(O-2-iPr-Ph)3_120C_xylene
     RDKit          2D

 31 33  0  0  0  0  0  0  0  0999 V2000
   -5.8363    3.4651    0.0000 C   0  0  0  0  0  0  0  0  0  0  0  0
   -4.6340    2.5682    0.0000 C   0  0  0  0  0  0  0  0  0  0  0  0
   -4.8096    1.0785    0.0000 C   0  0  0  0  0  0  0  0  0  0  0  0
   -3.2561    3.1610    0.0000 C   0  0  0  0  0  0  0  0  0  0  0  0
   -3.0805    4.6507    0.0000 C   0  0  0  0  0  0  0  0  0  0  0  0
   -1.7026    5.2434    0.0000 C   0  0  0  0  0  0  0  0  0  0  0  0
   -0.5003    4.3465    0.0000 C   0  0  0  0  0  0  0  0  0  0  0  0
   -0.6759    2.8568    0.0000 C   0  0  0  0  0  0  0  0  0  0  0  0
    0.5264    1.9599    0.0000 O   0  0  0  0  0  0  0  0  0  0  0  0
    0.3508    0.4702    0.0000 P   0  0  0  0  0  0  0  0  0  0  0  0
    1.5531   -0.4267    0.0000 O   0  0  0  0  0  0  0  0  0  0  0  0
    2.9310    0.1661    0.0000 C   0  0  0  0  0  0  0  0  0  0  0  0
    3.1066    1.6558    0.0000 C   0  0  0  0  0  0  0  0  0  0  0  0
    4.4845    2.2485    0.0000 C   0  0  0  0  0  0  0  0  0  0  0  0
    5.6868    1.3516    0.0000 C   0  0  0  0  0  0  0  0  0  0  0  0
    5.5112   -0.1381    0.0000 C   0  0  0  0  0  0  0  0  0  0  0  0
    6.7135   -1.0350    0.0000 C   0  0  0  0  0  0  0  0  0  0  0  0
    8.0914   -0.4422    0.0000 C   0  0  0  0  0  0  0  0  0  0  0  0
    6.5379   -2.5247    0.0000 C   0  0  0  0  0  0  0  0  0  0  0  0
    4.1333   -0.7308    0.0000 C   0  0  0  0  0  0  0  0  0  0  0  0
   -1.0271   -0.1225    0.0000 O   0  0  0  0  0  0  0  0  0  0  0  0
   -1.2027   -1.6122    0.0000 C   0  0  0  0  0  0  0  0  0  0  0  0
   -0.0004   -2.5091    0.0000 C   0  0  0  0  0  0  0  0  0  0  0  0
   -0.1760   -3.9988    0.0000 C   0  0  0  0  0  0  0  0  0  0  0  0
   -1.5539   -4.5916    0.0000 C   0  0  0  0  0  0  0  0  0  0  0  0
   -2.7562   -3.6947    0.0000 C   0  0  0  0  0  0  0  0  0  0  0  0
   -4.1341   -4.2874    0.0000 C   0  0  0  0  0  0  0  0  0  0  0  0
   -4.3097   -5.7771    0.0000 C   0  0  0  0  0  0  0  0  0  0  0  0
   -5.3364   -3.3905    0.0000 C   0  0  0  0  0  0  0  0  0  0  0  0
   -2.5806   -2.2050    0.0000 C   0  0  0  0  0  0  0  0  0  0  0  0
   -2.0538    2.2641    0.0000 C   0  0  0  0  0  0  0  0  0  0  0  0
  1  2  1  0
  2  3  1  0
  2  4  1  0
  4  5  2  0
  5  6  1  0
  6  7  2  0
  7  8  1  0
  8  9  1  0
  9 10  1  0
 10 11  1  0
 11 12  1  0
 12 13  2  0
 13 14  1  0
 14 15  2  0
 15 16  1  0
 16 17  1  0
 17 18  1  0
 17 19  1  0
 16 20  2  0
 10 21  1  0
 21 22  1  0
 22 23  2  0
 23 24  1  0
 24 25  2  0
 25 26  1  0
 26 27  1  0
 27 28  1  0
 27 29  1  0
 26 30  2  0
  8 31  2  0
 31  4  1  0
 20 12  1  0
 30 22  1  0
M  END
>  <linear_selectivity>  (671) 
63

>  <denticity>  (671) 
1

>  <ligand_class>  (671) 
phosphite

$$$$
P(O-2-iPr-Ph)3_130C_toluene
     RDKit          2D

 31 33  0  0  0  0  0  0  0  0999 V2000
   -5.8363    3.4651    0.0000 C   0  0  0  0  0  0  0  0  0  0  0  0
   -4.6340    2.5682    0.0000 C   0  0  0  0  0  0  0  0  0  0  0  0
   -4.8096    1.0785    0.0000 C   0  0  0  0  0  0  0  0  0  0  0  0
   -3.2561    3.1610    0.0000 C   0  0  0  0  0  0  0  0  0  0  0  0
   -3.0805    4.6507    0.0000 C   0  0  0  0  0  0  0  0  0  0  0  0
   -1.7026    5.2434    0.0000 C   0  0  0  0  0  0  0  0  0  0  0  0
   -0.5003    4.3465    0.0000 C   0  0  0  0  0  0  0  0  0  0  0  0
   -0.6759    2.8568    0.0000 C   0  0  0  0  0  0  0  0  0  0  0  0
    0.5264    1.9599    0.0000 O   0  0  0  0  0  0  0  0  0  0  0  0
    0.3508    0.4702    0.0000 P   0  0  0  0  0  0  0  0  0  0  0  0
    1.5531   -0.4267    0.0000 O   0  0  0  0  0  0  0  0  0  0  0  0
    2.9310    0.1661    0.0000 C   0  0  0  0  0  0  0  0  0  0  0  0
    3.1066    1.6558    0.0000 C   0  0  0  0  0  0  0  0  0  0  0  0
    4.4845    2.2485    0.0000 C   0  0  0  0  0  0  0  0  0  0  0  0
    5.6868    1.3516    0.0000 C   0  0  0  0  0  0  0  0  0  0  0  0
    5.5112   -0.1381    0.0000 C   0  0  0  0  0  0  0  0  0  0  0  0
    6.7135   -1.0350    0.0000 C   0  0  0  0  0  0  0  0  0  0  0  0
    8.0914   -0.4422    0.0000 C   0  0  0  0  0  0  0  0  0  0  0  0
    6.5379   -2.5247    0.0000 C   0  0  0  0  0  0  0  0  0  0  0  0
    4.1333   -0.7308    0.0000 C   0  0  0  0  0  0  0  0  0  0  0  0
   -1.0271   -0.1225    0.0000 O   0  0  0  0  0  0  0  0  0  0  0  0
   -1.2027   -1.6122    0.0000 C   0  0  0  0  0  0  0  0  0  0  0  0
   -0.0004   -2.5091    0.0000 C   0  0  0  0  0  0  0  0  0  0  0  0
   -0.1760   -3.9988    0.0000 C   0  0  0  0  0  0  0  0  0  0  0  0
   -1.5539   -4.5916    0.0000 C   0  0  0  0  0  0  0  0  0  0  0  0
   -2.7562   -3.6947    0.0000 C   0  0  0  0  0  0  0  0  0  0  0  0
   -4.1341   -4.2874    0.0000 C   0  0  0  0  0  0  0  0  0  0  0  0
   -4.3097   -5.7771    0.0000 C   0  0  0  0  0  0  0  0  0  0  0  0
   -5.3364   -3.3905    0.0000 C   0  0  0  0  0  0  0  0  0  0  0  0
   -2.5806   -2.2050    0.0000 C   0  0  0  0  0  0  0  0  0  0  0  0
   -2.0538    2.2641    0.0000 C   0  0  0  0  0  0  0  0  0  0  0  0
  1  2  1  0
  2  3  1  0
  2  4  1  0
  4  5  2  0
  5  6  1  0
  6  7  2  0
  7  8  1  0
  8  9  1  0
  9 10  1  0
 10 11  1  0
 11 12  1  0
 12 13  2  0
 13 14  1  0
 14 15  2  0
 15 16  1  0
 16 17  1  0
 17 18  1  0
 17 19  1  0
 16 20  2  0
 10 21  1  0
 21 22  1  0
 22 23  2  0
 23 24  1  0
 24 25  2  0
 25 26  1  0
 26 27  1  0
 27 28  1  0
 27 29  1  0
 26 30  2  0
  8 31  2  0
 31  4  1  0
 20 12  1  0
 30 22  1  0
M  END
>  <linear_selectivity>  (672) 
60

>  <denticity>  (672) 
1

>  <ligand_class>  (672) 
phosphite

$$$$
P(O-2-iPr-Ph)3_130C_hexane
     RDKit          2D

 31 33  0  0  0  0  0  0  0  0999 V2000
   -5.8363    3.4651    0.0000 C   0  0  0  0  0  0  0  0  0  0  0  0
   -4.6340    2.5682    0.0000 C   0  0  0  0  0  0  0  0  0  0  0  0
   -4.8096    1.0785    0.0000 C   0  0  0  0  0  0  0  0  0  0  0  0
   -3.2561    3.1610    0.0000 C   0  0  0  0  0  0  0  0  0  0  0  0
   -3.0805    4.6507    0.0000 C   0  0  0  0  0  0  0  0  0  0  0  0
   -1.7026    5.2434    0.0000 C   0  0  0  0  0  0  0  0  0  0  0  0
   -0.5003    4.3465    0.0000 C   0  0  0  0  0  0  0  0  0  0  0  0
   -0.6759    2.8568    0.0000 C   0  0  0  0  0  0  0  0  0  0  0  0
    0.5264    1.9599    0.0000 O   0  0  0  0  0  0  0  0  0  0  0  0
    0.3508    0.4702    0.0000 P   0  0  0  0  0  0  0  0  0  0  0  0
    1.5531   -0.4267    0.0000 O   0  0  0  0  0  0  0  0  0  0  0  0
    2.9310    0.1661    0.0000 C   0  0  0  0  0  0  0  0  0  0  0  0
    3.1066    1.6558    0.0000 C   0  0  0  0  0  0  0  0  0  0  0  0
    4.4845    2.2485    0.0000 C   0  0  0  0  0  0  0  0  0  0  0  0
    5.6868    1.3516    0.0000 C   0  0  0  0  0  0  0  0  0  0  0  0
    5.5112   -0.1381    0.0000 C   0  0  0  0  0  0  0  0  0  0  0  0
    6.7135   -1.0350    0.0000 C   0  0  0  0  0  0  0  0  0  0  0  0
    8.0914   -0.4422    0.0000 C   0  0  0  0  0  0  0  0  0  0  0  0
    6.5379   -2.5247    0.0000 C   0  0  0  0  0  0  0  0  0  0  0  0
    4.1333   -0.7308    0.0000 C   0  0  0  0  0  0  0  0  0  0  0  0
   -1.0271   -0.1225    0.0000 O   0  0  0  0  0  0  0  0  0  0  0  0
   -1.2027   -1.6122    0.0000 C   0  0  0  0  0  0  0  0  0  0  0  0
   -0.0004   -2.5091    0.0000 C   0  0  0  0  0  0  0  0  0  0  0  0
   -0.1760   -3.9988    0.0000 C   0  0  0  0  0  0  0  0  0  0  0  0
   -1.5539   -4.5916    0.0000 C   0  0  0  0  0  0  0  0  0  0  0  0
   -2.7562   -3.6947    0.0000 C   0  0  0  0  0  0  0  0  0  0  0  0
   -4.1341   -4.2874    0.0000 C   0  0  0  0  0  0  0  0  0  0  0  0
   -4.3097   -5.7771    0.0000 C   0  0  0  0  0  0  0  0  0  0  0  0
   -5.3364   -3.3905    0.0000 C   0  0  0  0  0  0  0  0  0  0  0  0
   -2.5806   -2.2050    0.0000 C   0  0  0  0  0  0  0  0  0  0  0  0
   -2.0538    2.2641    0.0000 C   0  0  0  0  0  0  0  0  0  0  0  0
  1  2  1  0
  2  3  1  0
  2  4  1  0
  4  5  2  0
  5  6  1  0
  6  7  2  0
  7  8  1  0
  8  9  1  0
  9 10  1  0
 10 11  1  0
 11 12  1  0
 12 13  2  0
 13 14  1  0
 14 15  2  0
 15 16  1  0
 16 17  1  0
 17 18  1  0
 17 19  1  0
 16 20  2  0
 10 21  1  0
 21 22  1  0
 22 23  2  0
 23 24  1  0
 24 25  2  0
 25 26  1  0
 26 27  1  0
 27 28  1  0
 27 29  1  0
 26 30  2  0
  8 31  2  0
 31  4  1  0
 20 12  1  0
 30 22  1  0
M  END
>  <linear_selectivity>  (673) 
60

>  <denticity>  (673) 
1

>  <ligand_class>  (673) 
phosphite

$$$$
P(O-2-iPr-Ph)3_130C_benzene
     RDKit          2D

 31 33  0  0  0  0  0  0  0  0999 V2000
   -5.8363    3.4651    0.0000 C   0  0  0  0  0  0  0  0  0  0  0  0
   -4.6340    2.5682    0.0000 C   0  0  0  0  0  0  0  0  0  0  0  0
   -4.8096    1.0785    0.0000 C   0  0  0  0  0  0  0  0  0  0  0  0
   -3.2561    3.1610    0.0000 C   0  0  0  0  0  0  0  0  0  0  0  0
   -3.0805    4.6507    0.0000 C   0  0  0  0  0  0  0  0  0  0  0  0
   -1.7026    5.2434    0.0000 C   0  0  0  0  0  0  0  0  0  0  0  0
   -0.5003    4.3465    0.0000 C   0  0  0  0  0  0  0  0  0  0  0  0
   -0.6759    2.8568    0.0000 C   0  0  0  0  0  0  0  0  0  0  0  0
    0.5264    1.9599    0.0000 O   0  0  0  0  0  0  0  0  0  0  0  0
    0.3508    0.4702    0.0000 P   0  0  0  0  0  0  0  0  0  0  0  0
    1.5531   -0.4267    0.0000 O   0  0  0  0  0  0  0  0  0  0  0  0
    2.9310    0.1661    0.0000 C   0  0  0  0  0  0  0  0  0  0  0  0
    3.1066    1.6558    0.0000 C   0  0  0  0  0  0  0  0  0  0  0  0
    4.4845    2.2485    0.0000 C   0  0  0  0  0  0  0  0  0  0  0  0
    5.6868    1.3516    0.0000 C   0  0  0  0  0  0  0  0  0  0  0  0
    5.5112   -0.1381    0.0000 C   0  0  0  0  0  0  0  0  0  0  0  0
    6.7135   -1.0350    0.0000 C   0  0  0  0  0  0  0  0  0  0  0  0
    8.0914   -0.4422    0.0000 C   0  0  0  0  0  0  0  0  0  0  0  0
    6.5379   -2.5247    0.0000 C   0  0  0  0  0  0  0  0  0  0  0  0
    4.1333   -0.7308    0.0000 C   0  0  0  0  0  0  0  0  0  0  0  0
   -1.0271   -0.1225    0.0000 O   0  0  0  0  0  0  0  0  0  0  0  0
   -1.2027   -1.6122    0.0000 C   0  0  0  0  0  0  0  0  0  0  0  0
   -0.0004   -2.5091    0.0000 C   0  0  0  0  0  0  0  0  0  0  0  0
   -0.1760   -3.9988    0.0000 C   0  0  0  0  0  0  0  0  0  0  0  0
   -1.5539   -4.5916    0.0000 C   0  0  0  0  0  0  0  0  0  0  0  0
   -2.7562   -3.6947    0.0000 C   0  0  0  0  0  0  0  0  0  0  0  0
   -4.1341   -4.2874    0.0000 C   0  0  0  0  0  0  0  0  0  0  0  0
   -4.3097   -5.7771    0.0000 C   0  0  0  0  0  0  0  0  0  0  0  0
   -5.3364   -3.3905    0.0000 C   0  0  0  0  0  0  0  0  0  0  0  0
   -2.5806   -2.2050    0.0000 C   0  0  0  0  0  0  0  0  0  0  0  0
   -2.0538    2.2641    0.0000 C   0  0  0  0  0  0  0  0  0  0  0  0
  1  2  1  0
  2  3  1  0
  2  4  1  0
  4  5  2  0
  5  6  1  0
  6  7  2  0
  7  8  1  0
  8  9  1  0
  9 10  1  0
 10 11  1  0
 11 12  1  0
 12 13  2  0
 13 14  1  0
 14 15  2  0
 15 16  1  0
 16 17  1  0
 17 18  1  0
 17 19  1  0
 16 20  2  0
 10 21  1  0
 21 22  1  0
 22 23  2  0
 23 24  1  0
 24 25  2  0
 25 26  1  0
 26 27  1  0
 27 28  1  0
 27 29  1  0
 26 30  2  0
  8 31  2  0
 31  4  1  0
 20 12  1  0
 30 22  1  0
M  END
>  <linear_selectivity>  (674) 
66

>  <denticity>  (674) 
1

>  <ligand_class>  (674) 
phosphite

$$$$
P(O-2-iPr-Ph)3_130C_xylene
     RDKit          2D

 31 33  0  0  0  0  0  0  0  0999 V2000
   -5.8363    3.4651    0.0000 C   0  0  0  0  0  0  0  0  0  0  0  0
   -4.6340    2.5682    0.0000 C   0  0  0  0  0  0  0  0  0  0  0  0
   -4.8096    1.0785    0.0000 C   0  0  0  0  0  0  0  0  0  0  0  0
   -3.2561    3.1610    0.0000 C   0  0  0  0  0  0  0  0  0  0  0  0
   -3.0805    4.6507    0.0000 C   0  0  0  0  0  0  0  0  0  0  0  0
   -1.7026    5.2434    0.0000 C   0  0  0  0  0  0  0  0  0  0  0  0
   -0.5003    4.3465    0.0000 C   0  0  0  0  0  0  0  0  0  0  0  0
   -0.6759    2.8568    0.0000 C   0  0  0  0  0  0  0  0  0  0  0  0
    0.5264    1.9599    0.0000 O   0  0  0  0  0  0  0  0  0  0  0  0
    0.3508    0.4702    0.0000 P   0  0  0  0  0  0  0  0  0  0  0  0
    1.5531   -0.4267    0.0000 O   0  0  0  0  0  0  0  0  0  0  0  0
    2.9310    0.1661    0.0000 C   0  0  0  0  0  0  0  0  0  0  0  0
    3.1066    1.6558    0.0000 C   0  0  0  0  0  0  0  0  0  0  0  0
    4.4845    2.2485    0.0000 C   0  0  0  0  0  0  0  0  0  0  0  0
    5.6868    1.3516    0.0000 C   0  0  0  0  0  0  0  0  0  0  0  0
    5.5112   -0.1381    0.0000 C   0  0  0  0  0  0  0  0  0  0  0  0
    6.7135   -1.0350    0.0000 C   0  0  0  0  0  0  0  0  0  0  0  0
    8.0914   -0.4422    0.0000 C   0  0  0  0  0  0  0  0  0  0  0  0
    6.5379   -2.5247    0.0000 C   0  0  0  0  0  0  0  0  0  0  0  0
    4.1333   -0.7308    0.0000 C   0  0  0  0  0  0  0  0  0  0  0  0
   -1.0271   -0.1225    0.0000 O   0  0  0  0  0  0  0  0  0  0  0  0
   -1.2027   -1.6122    0.0000 C   0  0  0  0  0  0  0  0  0  0  0  0
   -0.0004   -2.5091    0.0000 C   0  0  0  0  0  0  0  0  0  0  0  0
   -0.1760   -3.9988    0.0000 C   0  0  0  0  0  0  0  0  0  0  0  0
   -1.5539   -4.5916    0.0000 C   0  0  0  0  0  0  0  0  0  0  0  0
   -2.7562   -3.6947    0.0000 C   0  0  0  0  0  0  0  0  0  0  0  0
   -4.1341   -4.2874    0.0000 C   0  0  0  0  0  0  0  0  0  0  0  0
   -4.3097   -5.7771    0.0000 C   0  0  0  0  0  0  0  0  0  0  0  0
   -5.3364   -3.3905    0.0000 C   0  0  0  0  0  0  0  0  0  0  0  0
   -2.5806   -2.2050    0.0000 C   0  0  0  0  0  0  0  0  0  0  0  0
   -2.0538    2.2641    0.0000 C   0  0  0  0  0  0  0  0  0  0  0  0
  1  2  1  0
  2  3  1  0
  2  4  1  0
  4  5  2  0
  5  6  1  0
  6  7  2  0
  7  8  1  0
  8  9  1  0
  9 10  1  0
 10 11  1  0
 11 12  1  0
 12 13  2  0
 13 14  1  0
 14 15  2  0
 15 16  1  0
 16 17  1  0
 17 18  1  0
 17 19  1  0
 16 20  2  0
 10 21  1  0
 21 22  1  0
 22 23  2  0
 23 24  1  0
 24 25  2  0
 25 26  1  0
 26 27  1  0
 27 28  1  0
 27 29  1  0
 26 30  2  0
  8 31  2  0
 31  4  1  0
 20 12  1  0
 30 22  1  0
M  END
>  <linear_selectivity>  (675) 
60

>  <denticity>  (675) 
1

>  <ligand_class>  (675) 
phosphite

$$$$
P(O-2-tBu-Ph)3
     RDKit          2D

 34 36  0  0  0  0  0  0  0  0999 V2000
   -5.1862    4.0015    0.0000 C   0  0  0  0  0  0  0  0  0  0  0  0
   -4.5866    2.6266    0.0000 C   0  0  0  0  0  0  0  0  0  0  0  0
   -3.9871    1.2516    0.0000 C   0  0  0  0  0  0  0  0  0  0  0  0
   -5.9616    2.0270    0.0000 C   0  0  0  0  0  0  0  0  0  0  0  0
   -3.2117    3.2261    0.0000 C   0  0  0  0  0  0  0  0  0  0  0  0
   -3.0435    4.7167    0.0000 C   0  0  0  0  0  0  0  0  0  0  0  0
   -1.6685    5.3163    0.0000 C   0  0  0  0  0  0  0  0  0  0  0  0
   -0.4618    4.4253    0.0000 C   0  0  0  0  0  0  0  0  0  0  0  0
   -0.6300    2.9348    0.0000 C   0  0  0  0  0  0  0  0  0  0  0  0
    0.5767    2.0438    0.0000 O   0  0  0  0  0  0  0  0  0  0  0  0
    0.4085    0.5533    0.0000 P   0  0  0  0  0  0  0  0  0  0  0  0
    1.6152   -0.3377    0.0000 O   0  0  0  0  0  0  0  0  0  0  0  0
    2.9902    0.2619    0.0000 C   0  0  0  0  0  0  0  0  0  0  0  0
    3.1584    1.7524    0.0000 C   0  0  0  0  0  0  0  0  0  0  0  0
    4.5334    2.3520    0.0000 C   0  0  0  0  0  0  0  0  0  0  0  0
    5.7401    1.4610    0.0000 C   0  0  0  0  0  0  0  0  0  0  0  0
    5.5719   -0.0295    0.0000 C   0  0  0  0  0  0  0  0  0  0  0  0
    6.7786   -0.9205    0.0000 C   0  0  0  0  0  0  0  0  0  0  0  0
    7.6695    0.2863    0.0000 C   0  0  0  0  0  0  0  0  0  0  0  0
    5.8876   -2.1272    0.0000 C   0  0  0  0  0  0  0  0  0  0  0  0
    7.9853   -1.8114    0.0000 C   0  0  0  0  0  0  0  0  0  0  0  0
    4.1969   -0.6291    0.0000 C   0  0  0  0  0  0  0  0  0  0  0  0
   -0.9665   -0.0463    0.0000 O   0  0  0  0  0  0  0  0  0  0  0  0
   -1.1347   -1.5368    0.0000 C   0  0  0  0  0  0  0  0  0  0  0  0
    0.0720   -2.4278    0.0000 C   0  0  0  0  0  0  0  0  0  0  0  0
   -0.0962   -3.9183    0.0000 C   0  0  0  0  0  0  0  0  0  0  0  0
   -1.4712   -4.5179    0.0000 C   0  0  0  0  0  0  0  0  0  0  0  0
   -2.6779   -3.6270    0.0000 C   0  0  0  0  0  0  0  0  0  0  0  0
   -4.0528   -4.2265    0.0000 C   0  0  0  0  0  0  0  0  0  0  0  0
   -3.4533   -5.6015    0.0000 C   0  0  0  0  0  0  0  0  0  0  0  0
   -4.6524   -2.8516    0.0000 C   0  0  0  0  0  0  0  0  0  0  0  0
   -5.4278   -4.8261    0.0000 C   0  0  0  0  0  0  0  0  0  0  0  0
   -2.5097   -2.1364    0.0000 C   0  0  0  0  0  0  0  0  0  0  0  0
   -2.0050    2.3352    0.0000 C   0  0  0  0  0  0  0  0  0  0  0  0
  1  2  1  0
  2  3  1  0
  2  4  1  0
  2  5  1  0
  5  6  2  0
  6  7  1  0
  7  8  2  0
  8  9  1  0
  9 10  1  0
 10 11  1  0
 11 12  1  0
 12 13  1  0
 13 14  2  0
 14 15  1  0
 15 16  2  0
 16 17  1  0
 17 18  1  0
 18 19  1  0
 18 20  1  0
 18 21  1  0
 17 22  2  0
 11 23  1  0
 23 24  1  0
 24 25  2  0
 25 26  1  0
 26 27  2  0
 27 28  1  0
 28 29  1  0
 29 30  1  0
 29 31  1  0
 29 32  1  0
 28 33  2  0
  9 34  2  0
 34  5  1  0
 22 13  1  0
 33 24  1  0
M  END
>  <linear_selectivity>  (676) 
71

>  <denticity>  (676) 
1

>  <ligand_class>  (676) 
phosphite

$$$$
P(O-2-tBu-Ph)3_70C_THF
     RDKit          2D

 34 36  0  0  0  0  0  0  0  0999 V2000
   -5.1862    4.0015    0.0000 C   0  0  0  0  0  0  0  0  0  0  0  0
   -4.5866    2.6266    0.0000 C   0  0  0  0  0  0  0  0  0  0  0  0
   -3.9871    1.2516    0.0000 C   0  0  0  0  0  0  0  0  0  0  0  0
   -5.9616    2.0270    0.0000 C   0  0  0  0  0  0  0  0  0  0  0  0
   -3.2117    3.2261    0.0000 C   0  0  0  0  0  0  0  0  0  0  0  0
   -3.0435    4.7167    0.0000 C   0  0  0  0  0  0  0  0  0  0  0  0
   -1.6685    5.3163    0.0000 C   0  0  0  0  0  0  0  0  0  0  0  0
   -0.4618    4.4253    0.0000 C   0  0  0  0  0  0  0  0  0  0  0  0
   -0.6300    2.9348    0.0000 C   0  0  0  0  0  0  0  0  0  0  0  0
    0.5767    2.0438    0.0000 O   0  0  0  0  0  0  0  0  0  0  0  0
    0.4085    0.5533    0.0000 P   0  0  0  0  0  0  0  0  0  0  0  0
    1.6152   -0.3377    0.0000 O   0  0  0  0  0  0  0  0  0  0  0  0
    2.9902    0.2619    0.0000 C   0  0  0  0  0  0  0  0  0  0  0  0
    3.1584    1.7524    0.0000 C   0  0  0  0  0  0  0  0  0  0  0  0
    4.5334    2.3520    0.0000 C   0  0  0  0  0  0  0  0  0  0  0  0
    5.7401    1.4610    0.0000 C   0  0  0  0  0  0  0  0  0  0  0  0
    5.5719   -0.0295    0.0000 C   0  0  0  0  0  0  0  0  0  0  0  0
    6.7786   -0.9205    0.0000 C   0  0  0  0  0  0  0  0  0  0  0  0
    7.6695    0.2863    0.0000 C   0  0  0  0  0  0  0  0  0  0  0  0
    5.8876   -2.1272    0.0000 C   0  0  0  0  0  0  0  0  0  0  0  0
    7.9853   -1.8114    0.0000 C   0  0  0  0  0  0  0  0  0  0  0  0
    4.1969   -0.6291    0.0000 C   0  0  0  0  0  0  0  0  0  0  0  0
   -0.9665   -0.0463    0.0000 O   0  0  0  0  0  0  0  0  0  0  0  0
   -1.1347   -1.5368    0.0000 C   0  0  0  0  0  0  0  0  0  0  0  0
    0.0720   -2.4278    0.0000 C   0  0  0  0  0  0  0  0  0  0  0  0
   -0.0962   -3.9183    0.0000 C   0  0  0  0  0  0  0  0  0  0  0  0
   -1.4712   -4.5179    0.0000 C   0  0  0  0  0  0  0  0  0  0  0  0
   -2.6779   -3.6270    0.0000 C   0  0  0  0  0  0  0  0  0  0  0  0
   -4.0528   -4.2265    0.0000 C   0  0  0  0  0  0  0  0  0  0  0  0
   -3.4533   -5.6015    0.0000 C   0  0  0  0  0  0  0  0  0  0  0  0
   -4.6524   -2.8516    0.0000 C   0  0  0  0  0  0  0  0  0  0  0  0
   -5.4278   -4.8261    0.0000 C   0  0  0  0  0  0  0  0  0  0  0  0
   -2.5097   -2.1364    0.0000 C   0  0  0  0  0  0  0  0  0  0  0  0
   -2.0050    2.3352    0.0000 C   0  0  0  0  0  0  0  0  0  0  0  0
  1  2  1  0
  2  3  1  0
  2  4  1  0
  2  5  1  0
  5  6  2  0
  6  7  1  0
  7  8  2  0
  8  9  1  0
  9 10  1  0
 10 11  1  0
 11 12  1  0
 12 13  1  0
 13 14  2  0
 14 15  1  0
 15 16  2  0
 16 17  1  0
 17 18  1  0
 18 19  1  0
 18 20  1  0
 18 21  1  0
 17 22  2  0
 11 23  1  0
 23 24  1  0
 24 25  2  0
 25 26  1  0
 26 27  2  0
 27 28  1  0
 28 29  1  0
 29 30  1  0
 29 31  1  0
 29 32  1  0
 28 33  2  0
  9 34  2  0
 34  5  1  0
 22 13  1  0
 33 24  1  0
M  END
>  <linear_selectivity>  (677) 
75

>  <denticity>  (677) 
1

>  <ligand_class>  (677) 
phosphite

$$$$
P(O-2-tBu-Ph)3_70C_dioxane
     RDKit          2D

 34 36  0  0  0  0  0  0  0  0999 V2000
   -5.1862    4.0015    0.0000 C   0  0  0  0  0  0  0  0  0  0  0  0
   -4.5866    2.6266    0.0000 C   0  0  0  0  0  0  0  0  0  0  0  0
   -3.9871    1.2516    0.0000 C   0  0  0  0  0  0  0  0  0  0  0  0
   -5.9616    2.0270    0.0000 C   0  0  0  0  0  0  0  0  0  0  0  0
   -3.2117    3.2261    0.0000 C   0  0  0  0  0  0  0  0  0  0  0  0
   -3.0435    4.7167    0.0000 C   0  0  0  0  0  0  0  0  0  0  0  0
   -1.6685    5.3163    0.0000 C   0  0  0  0  0  0  0  0  0  0  0  0
   -0.4618    4.4253    0.0000 C   0  0  0  0  0  0  0  0  0  0  0  0
   -0.6300    2.9348    0.0000 C   0  0  0  0  0  0  0  0  0  0  0  0
    0.5767    2.0438    0.0000 O   0  0  0  0  0  0  0  0  0  0  0  0
    0.4085    0.5533    0.0000 P   0  0  0  0  0  0  0  0  0  0  0  0
    1.6152   -0.3377    0.0000 O   0  0  0  0  0  0  0  0  0  0  0  0
    2.9902    0.2619    0.0000 C   0  0  0  0  0  0  0  0  0  0  0  0
    3.1584    1.7524    0.0000 C   0  0  0  0  0  0  0  0  0  0  0  0
    4.5334    2.3520    0.0000 C   0  0  0  0  0  0  0  0  0  0  0  0
    5.7401    1.4610    0.0000 C   0  0  0  0  0  0  0  0  0  0  0  0
    5.5719   -0.0295    0.0000 C   0  0  0  0  0  0  0  0  0  0  0  0
    6.7786   -0.9205    0.0000 C   0  0  0  0  0  0  0  0  0  0  0  0
    7.6695    0.2863    0.0000 C   0  0  0  0  0  0  0  0  0  0  0  0
    5.8876   -2.1272    0.0000 C   0  0  0  0  0  0  0  0  0  0  0  0
    7.9853   -1.8114    0.0000 C   0  0  0  0  0  0  0  0  0  0  0  0
    4.1969   -0.6291    0.0000 C   0  0  0  0  0  0  0  0  0  0  0  0
   -0.9665   -0.0463    0.0000 O   0  0  0  0  0  0  0  0  0  0  0  0
   -1.1347   -1.5368    0.0000 C   0  0  0  0  0  0  0  0  0  0  0  0
    0.0720   -2.4278    0.0000 C   0  0  0  0  0  0  0  0  0  0  0  0
   -0.0962   -3.9183    0.0000 C   0  0  0  0  0  0  0  0  0  0  0  0
   -1.4712   -4.5179    0.0000 C   0  0  0  0  0  0  0  0  0  0  0  0
   -2.6779   -3.6270    0.0000 C   0  0  0  0  0  0  0  0  0  0  0  0
   -4.0528   -4.2265    0.0000 C   0  0  0  0  0  0  0  0  0  0  0  0
   -3.4533   -5.6015    0.0000 C   0  0  0  0  0  0  0  0  0  0  0  0
   -4.6524   -2.8516    0.0000 C   0  0  0  0  0  0  0  0  0  0  0  0
   -5.4278   -4.8261    0.0000 C   0  0  0  0  0  0  0  0  0  0  0  0
   -2.5097   -2.1364    0.0000 C   0  0  0  0  0  0  0  0  0  0  0  0
   -2.0050    2.3352    0.0000 C   0  0  0  0  0  0  0  0  0  0  0  0
  1  2  1  0
  2  3  1  0
  2  4  1  0
  2  5  1  0
  5  6  2  0
  6  7  1  0
  7  8  2  0
  8  9  1  0
  9 10  1  0
 10 11  1  0
 11 12  1  0
 12 13  1  0
 13 14  2  0
 14 15  1  0
 15 16  2  0
 16 17  1  0
 17 18  1  0
 18 19  1  0
 18 20  1  0
 18 21  1  0
 17 22  2  0
 11 23  1  0
 23 24  1  0
 24 25  2  0
 25 26  1  0
 26 27  2  0
 27 28  1  0
 28 29  1  0
 29 30  1  0
 29 31  1  0
 29 32  1  0
 28 33  2  0
  9 34  2  0
 34  5  1  0
 22 13  1  0
 33 24  1  0
M  END
>  <linear_selectivity>  (678) 
78

>  <denticity>  (678) 
1

>  <ligand_class>  (678) 
phosphite

$$$$
P(O-2-tBu-Ph)3_70C_benzene
     RDKit          2D

 34 36  0  0  0  0  0  0  0  0999 V2000
   -5.1862    4.0015    0.0000 C   0  0  0  0  0  0  0  0  0  0  0  0
   -4.5866    2.6266    0.0000 C   0  0  0  0  0  0  0  0  0  0  0  0
   -3.9871    1.2516    0.0000 C   0  0  0  0  0  0  0  0  0  0  0  0
   -5.9616    2.0270    0.0000 C   0  0  0  0  0  0  0  0  0  0  0  0
   -3.2117    3.2261    0.0000 C   0  0  0  0  0  0  0  0  0  0  0  0
   -3.0435    4.7167    0.0000 C   0  0  0  0  0  0  0  0  0  0  0  0
   -1.6685    5.3163    0.0000 C   0  0  0  0  0  0  0  0  0  0  0  0
   -0.4618    4.4253    0.0000 C   0  0  0  0  0  0  0  0  0  0  0  0
   -0.6300    2.9348    0.0000 C   0  0  0  0  0  0  0  0  0  0  0  0
    0.5767    2.0438    0.0000 O   0  0  0  0  0  0  0  0  0  0  0  0
    0.4085    0.5533    0.0000 P   0  0  0  0  0  0  0  0  0  0  0  0
    1.6152   -0.3377    0.0000 O   0  0  0  0  0  0  0  0  0  0  0  0
    2.9902    0.2619    0.0000 C   0  0  0  0  0  0  0  0  0  0  0  0
    3.1584    1.7524    0.0000 C   0  0  0  0  0  0  0  0  0  0  0  0
    4.5334    2.3520    0.0000 C   0  0  0  0  0  0  0  0  0  0  0  0
    5.7401    1.4610    0.0000 C   0  0  0  0  0  0  0  0  0  0  0  0
    5.5719   -0.0295    0.0000 C   0  0  0  0  0  0  0  0  0  0  0  0
    6.7786   -0.9205    0.0000 C   0  0  0  0  0  0  0  0  0  0  0  0
    7.6695    0.2863    0.0000 C   0  0  0  0  0  0  0  0  0  0  0  0
    5.8876   -2.1272    0.0000 C   0  0  0  0  0  0  0  0  0  0  0  0
    7.9853   -1.8114    0.0000 C   0  0  0  0  0  0  0  0  0  0  0  0
    4.1969   -0.6291    0.0000 C   0  0  0  0  0  0  0  0  0  0  0  0
   -0.9665   -0.0463    0.0000 O   0  0  0  0  0  0  0  0  0  0  0  0
   -1.1347   -1.5368    0.0000 C   0  0  0  0  0  0  0  0  0  0  0  0
    0.0720   -2.4278    0.0000 C   0  0  0  0  0  0  0  0  0  0  0  0
   -0.0962   -3.9183    0.0000 C   0  0  0  0  0  0  0  0  0  0  0  0
   -1.4712   -4.5179    0.0000 C   0  0  0  0  0  0  0  0  0  0  0  0
   -2.6779   -3.6270    0.0000 C   0  0  0  0  0  0  0  0  0  0  0  0
   -4.0528   -4.2265    0.0000 C   0  0  0  0  0  0  0  0  0  0  0  0
   -3.4533   -5.6015    0.0000 C   0  0  0  0  0  0  0  0  0  0  0  0
   -4.6524   -2.8516    0.0000 C   0  0  0  0  0  0  0  0  0  0  0  0
   -5.4278   -4.8261    0.0000 C   0  0  0  0  0  0  0  0  0  0  0  0
   -2.5097   -2.1364    0.0000 C   0  0  0  0  0  0  0  0  0  0  0  0
   -2.0050    2.3352    0.0000 C   0  0  0  0  0  0  0  0  0  0  0  0
  1  2  1  0
  2  3  1  0
  2  4  1  0
  2  5  1  0
  5  6  2  0
  6  7  1  0
  7  8  2  0
  8  9  1  0
  9 10  1  0
 10 11  1  0
 11 12  1  0
 12 13  1  0
 13 14  2  0
 14 15  1  0
 15 16  2  0
 16 17  1  0
 17 18  1  0
 18 19  1  0
 18 20  1  0
 18 21  1  0
 17 22  2  0
 11 23  1  0
 23 24  1  0
 24 25  2  0
 25 26  1  0
 26 27  2  0
 27 28  1  0
 28 29  1  0
 29 30  1  0
 29 31  1  0
 29 32  1  0
 28 33  2  0
  9 34  2  0
 34  5  1  0
 22 13  1  0
 33 24  1  0
M  END
>  <linear_selectivity>  (679) 
84

>  <denticity>  (679) 
1

>  <ligand_class>  (679) 
phosphite

$$$$
P(O-2-tBu-Ph)3_80C_toluene
     RDKit          2D

 34 36  0  0  0  0  0  0  0  0999 V2000
   -5.1862    4.0015    0.0000 C   0  0  0  0  0  0  0  0  0  0  0  0
   -4.5866    2.6266    0.0000 C   0  0  0  0  0  0  0  0  0  0  0  0
   -3.9871    1.2516    0.0000 C   0  0  0  0  0  0  0  0  0  0  0  0
   -5.9616    2.0270    0.0000 C   0  0  0  0  0  0  0  0  0  0  0  0
   -3.2117    3.2261    0.0000 C   0  0  0  0  0  0  0  0  0  0  0  0
   -3.0435    4.7167    0.0000 C   0  0  0  0  0  0  0  0  0  0  0  0
   -1.6685    5.3163    0.0000 C   0  0  0  0  0  0  0  0  0  0  0  0
   -0.4618    4.4253    0.0000 C   0  0  0  0  0  0  0  0  0  0  0  0
   -0.6300    2.9348    0.0000 C   0  0  0  0  0  0  0  0  0  0  0  0
    0.5767    2.0438    0.0000 O   0  0  0  0  0  0  0  0  0  0  0  0
    0.4085    0.5533    0.0000 P   0  0  0  0  0  0  0  0  0  0  0  0
    1.6152   -0.3377    0.0000 O   0  0  0  0  0  0  0  0  0  0  0  0
    2.9902    0.2619    0.0000 C   0  0  0  0  0  0  0  0  0  0  0  0
    3.1584    1.7524    0.0000 C   0  0  0  0  0  0  0  0  0  0  0  0
    4.5334    2.3520    0.0000 C   0  0  0  0  0  0  0  0  0  0  0  0
    5.7401    1.4610    0.0000 C   0  0  0  0  0  0  0  0  0  0  0  0
    5.5719   -0.0295    0.0000 C   0  0  0  0  0  0  0  0  0  0  0  0
    6.7786   -0.9205    0.0000 C   0  0  0  0  0  0  0  0  0  0  0  0
    7.6695    0.2863    0.0000 C   0  0  0  0  0  0  0  0  0  0  0  0
    5.8876   -2.1272    0.0000 C   0  0  0  0  0  0  0  0  0  0  0  0
    7.9853   -1.8114    0.0000 C   0  0  0  0  0  0  0  0  0  0  0  0
    4.1969   -0.6291    0.0000 C   0  0  0  0  0  0  0  0  0  0  0  0
   -0.9665   -0.0463    0.0000 O   0  0  0  0  0  0  0  0  0  0  0  0
   -1.1347   -1.5368    0.0000 C   0  0  0  0  0  0  0  0  0  0  0  0
    0.0720   -2.4278    0.0000 C   0  0  0  0  0  0  0  0  0  0  0  0
   -0.0962   -3.9183    0.0000 C   0  0  0  0  0  0  0  0  0  0  0  0
   -1.4712   -4.5179    0.0000 C   0  0  0  0  0  0  0  0  0  0  0  0
   -2.6779   -3.6270    0.0000 C   0  0  0  0  0  0  0  0  0  0  0  0
   -4.0528   -4.2265    0.0000 C   0  0  0  0  0  0  0  0  0  0  0  0
   -3.4533   -5.6015    0.0000 C   0  0  0  0  0  0  0  0  0  0  0  0
   -4.6524   -2.8516    0.0000 C   0  0  0  0  0  0  0  0  0  0  0  0
   -5.4278   -4.8261    0.0000 C   0  0  0  0  0  0  0  0  0  0  0  0
   -2.5097   -2.1364    0.0000 C   0  0  0  0  0  0  0  0  0  0  0  0
   -2.0050    2.3352    0.0000 C   0  0  0  0  0  0  0  0  0  0  0  0
  1  2  1  0
  2  3  1  0
  2  4  1  0
  2  5  1  0
  5  6  2  0
  6  7  1  0
  7  8  2  0
  8  9  1  0
  9 10  1  0
 10 11  1  0
 11 12  1  0
 12 13  1  0
 13 14  2  0
 14 15  1  0
 15 16  2  0
 16 17  1  0
 17 18  1  0
 18 19  1  0
 18 20  1  0
 18 21  1  0
 17 22  2  0
 11 23  1  0
 23 24  1  0
 24 25  2  0
 25 26  1  0
 26 27  2  0
 27 28  1  0
 28 29  1  0
 29 30  1  0
 29 31  1  0
 29 32  1  0
 28 33  2  0
  9 34  2  0
 34  5  1  0
 22 13  1  0
 33 24  1  0
M  END
>  <linear_selectivity>  (680) 
78

>  <denticity>  (680) 
1

>  <ligand_class>  (680) 
phosphite

$$$$
P(O-2-tBu-Ph)3_80C_THF
     RDKit          2D

 34 36  0  0  0  0  0  0  0  0999 V2000
   -5.1862    4.0015    0.0000 C   0  0  0  0  0  0  0  0  0  0  0  0
   -4.5866    2.6266    0.0000 C   0  0  0  0  0  0  0  0  0  0  0  0
   -3.9871    1.2516    0.0000 C   0  0  0  0  0  0  0  0  0  0  0  0
   -5.9616    2.0270    0.0000 C   0  0  0  0  0  0  0  0  0  0  0  0
   -3.2117    3.2261    0.0000 C   0  0  0  0  0  0  0  0  0  0  0  0
   -3.0435    4.7167    0.0000 C   0  0  0  0  0  0  0  0  0  0  0  0
   -1.6685    5.3163    0.0000 C   0  0  0  0  0  0  0  0  0  0  0  0
   -0.4618    4.4253    0.0000 C   0  0  0  0  0  0  0  0  0  0  0  0
   -0.6300    2.9348    0.0000 C   0  0  0  0  0  0  0  0  0  0  0  0
    0.5767    2.0438    0.0000 O   0  0  0  0  0  0  0  0  0  0  0  0
    0.4085    0.5533    0.0000 P   0  0  0  0  0  0  0  0  0  0  0  0
    1.6152   -0.3377    0.0000 O   0  0  0  0  0  0  0  0  0  0  0  0
    2.9902    0.2619    0.0000 C   0  0  0  0  0  0  0  0  0  0  0  0
    3.1584    1.7524    0.0000 C   0  0  0  0  0  0  0  0  0  0  0  0
    4.5334    2.3520    0.0000 C   0  0  0  0  0  0  0  0  0  0  0  0
    5.7401    1.4610    0.0000 C   0  0  0  0  0  0  0  0  0  0  0  0
    5.5719   -0.0295    0.0000 C   0  0  0  0  0  0  0  0  0  0  0  0
    6.7786   -0.9205    0.0000 C   0  0  0  0  0  0  0  0  0  0  0  0
    7.6695    0.2863    0.0000 C   0  0  0  0  0  0  0  0  0  0  0  0
    5.8876   -2.1272    0.0000 C   0  0  0  0  0  0  0  0  0  0  0  0
    7.9853   -1.8114    0.0000 C   0  0  0  0  0  0  0  0  0  0  0  0
    4.1969   -0.6291    0.0000 C   0  0  0  0  0  0  0  0  0  0  0  0
   -0.9665   -0.0463    0.0000 O   0  0  0  0  0  0  0  0  0  0  0  0
   -1.1347   -1.5368    0.0000 C   0  0  0  0  0  0  0  0  0  0  0  0
    0.0720   -2.4278    0.0000 C   0  0  0  0  0  0  0  0  0  0  0  0
   -0.0962   -3.9183    0.0000 C   0  0  0  0  0  0  0  0  0  0  0  0
   -1.4712   -4.5179    0.0000 C   0  0  0  0  0  0  0  0  0  0  0  0
   -2.6779   -3.6270    0.0000 C   0  0  0  0  0  0  0  0  0  0  0  0
   -4.0528   -4.2265    0.0000 C   0  0  0  0  0  0  0  0  0  0  0  0
   -3.4533   -5.6015    0.0000 C   0  0  0  0  0  0  0  0  0  0  0  0
   -4.6524   -2.8516    0.0000 C   0  0  0  0  0  0  0  0  0  0  0  0
   -5.4278   -4.8261    0.0000 C   0  0  0  0  0  0  0  0  0  0  0  0
   -2.5097   -2.1364    0.0000 C   0  0  0  0  0  0  0  0  0  0  0  0
   -2.0050    2.3352    0.0000 C   0  0  0  0  0  0  0  0  0  0  0  0
  1  2  1  0
  2  3  1  0
  2  4  1  0
  2  5  1  0
  5  6  2  0
  6  7  1  0
  7  8  2  0
  8  9  1  0
  9 10  1  0
 10 11  1  0
 11 12  1  0
 12 13  1  0
 13 14  2  0
 14 15  1  0
 15 16  2  0
 16 17  1  0
 17 18  1  0
 18 19  1  0
 18 20  1  0
 18 21  1  0
 17 22  2  0
 11 23  1  0
 23 24  1  0
 24 25  2  0
 25 26  1  0
 26 27  2  0
 27 28  1  0
 28 29  1  0
 29 30  1  0
 29 31  1  0
 29 32  1  0
 28 33  2  0
  9 34  2  0
 34  5  1  0
 22 13  1  0
 33 24  1  0
M  END
>  <linear_selectivity>  (681) 
71

>  <denticity>  (681) 
1

>  <ligand_class>  (681) 
phosphite

$$$$
P(O-2-tBu-Ph)3_80C_dioxane
     RDKit          2D

 34 36  0  0  0  0  0  0  0  0999 V2000
   -5.1862    4.0015    0.0000 C   0  0  0  0  0  0  0  0  0  0  0  0
   -4.5866    2.6266    0.0000 C   0  0  0  0  0  0  0  0  0  0  0  0
   -3.9871    1.2516    0.0000 C   0  0  0  0  0  0  0  0  0  0  0  0
   -5.9616    2.0270    0.0000 C   0  0  0  0  0  0  0  0  0  0  0  0
   -3.2117    3.2261    0.0000 C   0  0  0  0  0  0  0  0  0  0  0  0
   -3.0435    4.7167    0.0000 C   0  0  0  0  0  0  0  0  0  0  0  0
   -1.6685    5.3163    0.0000 C   0  0  0  0  0  0  0  0  0  0  0  0
   -0.4618    4.4253    0.0000 C   0  0  0  0  0  0  0  0  0  0  0  0
   -0.6300    2.9348    0.0000 C   0  0  0  0  0  0  0  0  0  0  0  0
    0.5767    2.0438    0.0000 O   0  0  0  0  0  0  0  0  0  0  0  0
    0.4085    0.5533    0.0000 P   0  0  0  0  0  0  0  0  0  0  0  0
    1.6152   -0.3377    0.0000 O   0  0  0  0  0  0  0  0  0  0  0  0
    2.9902    0.2619    0.0000 C   0  0  0  0  0  0  0  0  0  0  0  0
    3.1584    1.7524    0.0000 C   0  0  0  0  0  0  0  0  0  0  0  0
    4.5334    2.3520    0.0000 C   0  0  0  0  0  0  0  0  0  0  0  0
    5.7401    1.4610    0.0000 C   0  0  0  0  0  0  0  0  0  0  0  0
    5.5719   -0.0295    0.0000 C   0  0  0  0  0  0  0  0  0  0  0  0
    6.7786   -0.9205    0.0000 C   0  0  0  0  0  0  0  0  0  0  0  0
    7.6695    0.2863    0.0000 C   0  0  0  0  0  0  0  0  0  0  0  0
    5.8876   -2.1272    0.0000 C   0  0  0  0  0  0  0  0  0  0  0  0
    7.9853   -1.8114    0.0000 C   0  0  0  0  0  0  0  0  0  0  0  0
    4.1969   -0.6291    0.0000 C   0  0  0  0  0  0  0  0  0  0  0  0
   -0.9665   -0.0463    0.0000 O   0  0  0  0  0  0  0  0  0  0  0  0
   -1.1347   -1.5368    0.0000 C   0  0  0  0  0  0  0  0  0  0  0  0
    0.0720   -2.4278    0.0000 C   0  0  0  0  0  0  0  0  0  0  0  0
   -0.0962   -3.9183    0.0000 C   0  0  0  0  0  0  0  0  0  0  0  0
   -1.4712   -4.5179    0.0000 C   0  0  0  0  0  0  0  0  0  0  0  0
   -2.6779   -3.6270    0.0000 C   0  0  0  0  0  0  0  0  0  0  0  0
   -4.0528   -4.2265    0.0000 C   0  0  0  0  0  0  0  0  0  0  0  0
   -3.4533   -5.6015    0.0000 C   0  0  0  0  0  0  0  0  0  0  0  0
   -4.6524   -2.8516    0.0000 C   0  0  0  0  0  0  0  0  0  0  0  0
   -5.4278   -4.8261    0.0000 C   0  0  0  0  0  0  0  0  0  0  0  0
   -2.5097   -2.1364    0.0000 C   0  0  0  0  0  0  0  0  0  0  0  0
   -2.0050    2.3352    0.0000 C   0  0  0  0  0  0  0  0  0  0  0  0
  1  2  1  0
  2  3  1  0
  2  4  1  0
  2  5  1  0
  5  6  2  0
  6  7  1  0
  7  8  2  0
  8  9  1  0
  9 10  1  0
 10 11  1  0
 11 12  1  0
 12 13  1  0
 13 14  2  0
 14 15  1  0
 15 16  2  0
 16 17  1  0
 17 18  1  0
 18 19  1  0
 18 20  1  0
 18 21  1  0
 17 22  2  0
 11 23  1  0
 23 24  1  0
 24 25  2  0
 25 26  1  0
 26 27  2  0
 27 28  1  0
 28 29  1  0
 29 30  1  0
 29 31  1  0
 29 32  1  0
 28 33  2  0
  9 34  2  0
 34  5  1  0
 22 13  1  0
 33 24  1  0
M  END
>  <linear_selectivity>  (682) 
75

>  <denticity>  (682) 
1

>  <ligand_class>  (682) 
phosphite

$$$$
P(O-2-tBu-Ph)3_80C_hexane
     RDKit          2D

 34 36  0  0  0  0  0  0  0  0999 V2000
   -5.1862    4.0015    0.0000 C   0  0  0  0  0  0  0  0  0  0  0  0
   -4.5866    2.6266    0.0000 C   0  0  0  0  0  0  0  0  0  0  0  0
   -3.9871    1.2516    0.0000 C   0  0  0  0  0  0  0  0  0  0  0  0
   -5.9616    2.0270    0.0000 C   0  0  0  0  0  0  0  0  0  0  0  0
   -3.2117    3.2261    0.0000 C   0  0  0  0  0  0  0  0  0  0  0  0
   -3.0435    4.7167    0.0000 C   0  0  0  0  0  0  0  0  0  0  0  0
   -1.6685    5.3163    0.0000 C   0  0  0  0  0  0  0  0  0  0  0  0
   -0.4618    4.4253    0.0000 C   0  0  0  0  0  0  0  0  0  0  0  0
   -0.6300    2.9348    0.0000 C   0  0  0  0  0  0  0  0  0  0  0  0
    0.5767    2.0438    0.0000 O   0  0  0  0  0  0  0  0  0  0  0  0
    0.4085    0.5533    0.0000 P   0  0  0  0  0  0  0  0  0  0  0  0
    1.6152   -0.3377    0.0000 O   0  0  0  0  0  0  0  0  0  0  0  0
    2.9902    0.2619    0.0000 C   0  0  0  0  0  0  0  0  0  0  0  0
    3.1584    1.7524    0.0000 C   0  0  0  0  0  0  0  0  0  0  0  0
    4.5334    2.3520    0.0000 C   0  0  0  0  0  0  0  0  0  0  0  0
    5.7401    1.4610    0.0000 C   0  0  0  0  0  0  0  0  0  0  0  0
    5.5719   -0.0295    0.0000 C   0  0  0  0  0  0  0  0  0  0  0  0
    6.7786   -0.9205    0.0000 C   0  0  0  0  0  0  0  0  0  0  0  0
    7.6695    0.2863    0.0000 C   0  0  0  0  0  0  0  0  0  0  0  0
    5.8876   -2.1272    0.0000 C   0  0  0  0  0  0  0  0  0  0  0  0
    7.9853   -1.8114    0.0000 C   0  0  0  0  0  0  0  0  0  0  0  0
    4.1969   -0.6291    0.0000 C   0  0  0  0  0  0  0  0  0  0  0  0
   -0.9665   -0.0463    0.0000 O   0  0  0  0  0  0  0  0  0  0  0  0
   -1.1347   -1.5368    0.0000 C   0  0  0  0  0  0  0  0  0  0  0  0
    0.0720   -2.4278    0.0000 C   0  0  0  0  0  0  0  0  0  0  0  0
   -0.0962   -3.9183    0.0000 C   0  0  0  0  0  0  0  0  0  0  0  0
   -1.4712   -4.5179    0.0000 C   0  0  0  0  0  0  0  0  0  0  0  0
   -2.6779   -3.6270    0.0000 C   0  0  0  0  0  0  0  0  0  0  0  0
   -4.0528   -4.2265    0.0000 C   0  0  0  0  0  0  0  0  0  0  0  0
   -3.4533   -5.6015    0.0000 C   0  0  0  0  0  0  0  0  0  0  0  0
   -4.6524   -2.8516    0.0000 C   0  0  0  0  0  0  0  0  0  0  0  0
   -5.4278   -4.8261    0.0000 C   0  0  0  0  0  0  0  0  0  0  0  0
   -2.5097   -2.1364    0.0000 C   0  0  0  0  0  0  0  0  0  0  0  0
   -2.0050    2.3352    0.0000 C   0  0  0  0  0  0  0  0  0  0  0  0
  1  2  1  0
  2  3  1  0
  2  4  1  0
  2  5  1  0
  5  6  2  0
  6  7  1  0
  7  8  2  0
  8  9  1  0
  9 10  1  0
 10 11  1  0
 11 12  1  0
 12 13  1  0
 13 14  2  0
 14 15  1  0
 15 16  2  0
 16 17  1  0
 17 18  1  0
 18 19  1  0
 18 20  1  0
 18 21  1  0
 17 22  2  0
 11 23  1  0
 23 24  1  0
 24 25  2  0
 25 26  1  0
 26 27  2  0
 27 28  1  0
 28 29  1  0
 29 30  1  0
 29 31  1  0
 29 32  1  0
 28 33  2  0
  9 34  2  0
 34  5  1  0
 22 13  1  0
 33 24  1  0
M  END
>  <linear_selectivity>  (683) 
79

>  <denticity>  (683) 
1

>  <ligand_class>  (683) 
phosphite

$$$$
P(O-2-tBu-Ph)3_80C_benzene
     RDKit          2D

 34 36  0  0  0  0  0  0  0  0999 V2000
   -5.1862    4.0015    0.0000 C   0  0  0  0  0  0  0  0  0  0  0  0
   -4.5866    2.6266    0.0000 C   0  0  0  0  0  0  0  0  0  0  0  0
   -3.9871    1.2516    0.0000 C   0  0  0  0  0  0  0  0  0  0  0  0
   -5.9616    2.0270    0.0000 C   0  0  0  0  0  0  0  0  0  0  0  0
   -3.2117    3.2261    0.0000 C   0  0  0  0  0  0  0  0  0  0  0  0
   -3.0435    4.7167    0.0000 C   0  0  0  0  0  0  0  0  0  0  0  0
   -1.6685    5.3163    0.0000 C   0  0  0  0  0  0  0  0  0  0  0  0
   -0.4618    4.4253    0.0000 C   0  0  0  0  0  0  0  0  0  0  0  0
   -0.6300    2.9348    0.0000 C   0  0  0  0  0  0  0  0  0  0  0  0
    0.5767    2.0438    0.0000 O   0  0  0  0  0  0  0  0  0  0  0  0
    0.4085    0.5533    0.0000 P   0  0  0  0  0  0  0  0  0  0  0  0
    1.6152   -0.3377    0.0000 O   0  0  0  0  0  0  0  0  0  0  0  0
    2.9902    0.2619    0.0000 C   0  0  0  0  0  0  0  0  0  0  0  0
    3.1584    1.7524    0.0000 C   0  0  0  0  0  0  0  0  0  0  0  0
    4.5334    2.3520    0.0000 C   0  0  0  0  0  0  0  0  0  0  0  0
    5.7401    1.4610    0.0000 C   0  0  0  0  0  0  0  0  0  0  0  0
    5.5719   -0.0295    0.0000 C   0  0  0  0  0  0  0  0  0  0  0  0
    6.7786   -0.9205    0.0000 C   0  0  0  0  0  0  0  0  0  0  0  0
    7.6695    0.2863    0.0000 C   0  0  0  0  0  0  0  0  0  0  0  0
    5.8876   -2.1272    0.0000 C   0  0  0  0  0  0  0  0  0  0  0  0
    7.9853   -1.8114    0.0000 C   0  0  0  0  0  0  0  0  0  0  0  0
    4.1969   -0.6291    0.0000 C   0  0  0  0  0  0  0  0  0  0  0  0
   -0.9665   -0.0463    0.0000 O   0  0  0  0  0  0  0  0  0  0  0  0
   -1.1347   -1.5368    0.0000 C   0  0  0  0  0  0  0  0  0  0  0  0
    0.0720   -2.4278    0.0000 C   0  0  0  0  0  0  0  0  0  0  0  0
   -0.0962   -3.9183    0.0000 C   0  0  0  0  0  0  0  0  0  0  0  0
   -1.4712   -4.5179    0.0000 C   0  0  0  0  0  0  0  0  0  0  0  0
   -2.6779   -3.6270    0.0000 C   0  0  0  0  0  0  0  0  0  0  0  0
   -4.0528   -4.2265    0.0000 C   0  0  0  0  0  0  0  0  0  0  0  0
   -3.4533   -5.6015    0.0000 C   0  0  0  0  0  0  0  0  0  0  0  0
   -4.6524   -2.8516    0.0000 C   0  0  0  0  0  0  0  0  0  0  0  0
   -5.4278   -4.8261    0.0000 C   0  0  0  0  0  0  0  0  0  0  0  0
   -2.5097   -2.1364    0.0000 C   0  0  0  0  0  0  0  0  0  0  0  0
   -2.0050    2.3352    0.0000 C   0  0  0  0  0  0  0  0  0  0  0  0
  1  2  1  0
  2  3  1  0
  2  4  1  0
  2  5  1  0
  5  6  2  0
  6  7  1  0
  7  8  2  0
  8  9  1  0
  9 10  1  0
 10 11  1  0
 11 12  1  0
 12 13  1  0
 13 14  2  0
 14 15  1  0
 15 16  2  0
 16 17  1  0
 17 18  1  0
 18 19  1  0
 18 20  1  0
 18 21  1  0
 17 22  2  0
 11 23  1  0
 23 24  1  0
 24 25  2  0
 25 26  1  0
 26 27  2  0
 27 28  1  0
 28 29  1  0
 29 30  1  0
 29 31  1  0
 29 32  1  0
 28 33  2  0
  9 34  2  0
 34  5  1  0
 22 13  1  0
 33 24  1  0
M  END
>  <linear_selectivity>  (684) 
76

>  <denticity>  (684) 
1

>  <ligand_class>  (684) 
phosphite

$$$$
P(O-2-tBu-Ph)3_90C_toluene
     RDKit          2D

 34 36  0  0  0  0  0  0  0  0999 V2000
   -5.1862    4.0015    0.0000 C   0  0  0  0  0  0  0  0  0  0  0  0
   -4.5866    2.6266    0.0000 C   0  0  0  0  0  0  0  0  0  0  0  0
   -3.9871    1.2516    0.0000 C   0  0  0  0  0  0  0  0  0  0  0  0
   -5.9616    2.0270    0.0000 C   0  0  0  0  0  0  0  0  0  0  0  0
   -3.2117    3.2261    0.0000 C   0  0  0  0  0  0  0  0  0  0  0  0
   -3.0435    4.7167    0.0000 C   0  0  0  0  0  0  0  0  0  0  0  0
   -1.6685    5.3163    0.0000 C   0  0  0  0  0  0  0  0  0  0  0  0
   -0.4618    4.4253    0.0000 C   0  0  0  0  0  0  0  0  0  0  0  0
   -0.6300    2.9348    0.0000 C   0  0  0  0  0  0  0  0  0  0  0  0
    0.5767    2.0438    0.0000 O   0  0  0  0  0  0  0  0  0  0  0  0
    0.4085    0.5533    0.0000 P   0  0  0  0  0  0  0  0  0  0  0  0
    1.6152   -0.3377    0.0000 O   0  0  0  0  0  0  0  0  0  0  0  0
    2.9902    0.2619    0.0000 C   0  0  0  0  0  0  0  0  0  0  0  0
    3.1584    1.7524    0.0000 C   0  0  0  0  0  0  0  0  0  0  0  0
    4.5334    2.3520    0.0000 C   0  0  0  0  0  0  0  0  0  0  0  0
    5.7401    1.4610    0.0000 C   0  0  0  0  0  0  0  0  0  0  0  0
    5.5719   -0.0295    0.0000 C   0  0  0  0  0  0  0  0  0  0  0  0
    6.7786   -0.9205    0.0000 C   0  0  0  0  0  0  0  0  0  0  0  0
    7.6695    0.2863    0.0000 C   0  0  0  0  0  0  0  0  0  0  0  0
    5.8876   -2.1272    0.0000 C   0  0  0  0  0  0  0  0  0  0  0  0
    7.9853   -1.8114    0.0000 C   0  0  0  0  0  0  0  0  0  0  0  0
    4.1969   -0.6291    0.0000 C   0  0  0  0  0  0  0  0  0  0  0  0
   -0.9665   -0.0463    0.0000 O   0  0  0  0  0  0  0  0  0  0  0  0
   -1.1347   -1.5368    0.0000 C   0  0  0  0  0  0  0  0  0  0  0  0
    0.0720   -2.4278    0.0000 C   0  0  0  0  0  0  0  0  0  0  0  0
   -0.0962   -3.9183    0.0000 C   0  0  0  0  0  0  0  0  0  0  0  0
   -1.4712   -4.5179    0.0000 C   0  0  0  0  0  0  0  0  0  0  0  0
   -2.6779   -3.6270    0.0000 C   0  0  0  0  0  0  0  0  0  0  0  0
   -4.0528   -4.2265    0.0000 C   0  0  0  0  0  0  0  0  0  0  0  0
   -3.4533   -5.6015    0.0000 C   0  0  0  0  0  0  0  0  0  0  0  0
   -4.6524   -2.8516    0.0000 C   0  0  0  0  0  0  0  0  0  0  0  0
   -5.4278   -4.8261    0.0000 C   0  0  0  0  0  0  0  0  0  0  0  0
   -2.5097   -2.1364    0.0000 C   0  0  0  0  0  0  0  0  0  0  0  0
   -2.0050    2.3352    0.0000 C   0  0  0  0  0  0  0  0  0  0  0  0
  1  2  1  0
  2  3  1  0
  2  4  1  0
  2  5  1  0
  5  6  2  0
  6  7  1  0
  7  8  2  0
  8  9  1  0
  9 10  1  0
 10 11  1  0
 11 12  1  0
 12 13  1  0
 13 14  2  0
 14 15  1  0
 15 16  2  0
 16 17  1  0
 17 18  1  0
 18 19  1  0
 18 20  1  0
 18 21  1  0
 17 22  2  0
 11 23  1  0
 23 24  1  0
 24 25  2  0
 25 26  1  0
 26 27  2  0
 27 28  1  0
 28 29  1  0
 29 30  1  0
 29 31  1  0
 29 32  1  0
 28 33  2  0
  9 34  2  0
 34  5  1  0
 22 13  1  0
 33 24  1  0
M  END
>  <linear_selectivity>  (685) 
76

>  <denticity>  (685) 
1

>  <ligand_class>  (685) 
phosphite

$$$$
P(O-2-tBu-Ph)3_90C_THF
     RDKit          2D

 34 36  0  0  0  0  0  0  0  0999 V2000
   -5.1862    4.0015    0.0000 C   0  0  0  0  0  0  0  0  0  0  0  0
   -4.5866    2.6266    0.0000 C   0  0  0  0  0  0  0  0  0  0  0  0
   -3.9871    1.2516    0.0000 C   0  0  0  0  0  0  0  0  0  0  0  0
   -5.9616    2.0270    0.0000 C   0  0  0  0  0  0  0  0  0  0  0  0
   -3.2117    3.2261    0.0000 C   0  0  0  0  0  0  0  0  0  0  0  0
   -3.0435    4.7167    0.0000 C   0  0  0  0  0  0  0  0  0  0  0  0
   -1.6685    5.3163    0.0000 C   0  0  0  0  0  0  0  0  0  0  0  0
   -0.4618    4.4253    0.0000 C   0  0  0  0  0  0  0  0  0  0  0  0
   -0.6300    2.9348    0.0000 C   0  0  0  0  0  0  0  0  0  0  0  0
    0.5767    2.0438    0.0000 O   0  0  0  0  0  0  0  0  0  0  0  0
    0.4085    0.5533    0.0000 P   0  0  0  0  0  0  0  0  0  0  0  0
    1.6152   -0.3377    0.0000 O   0  0  0  0  0  0  0  0  0  0  0  0
    2.9902    0.2619    0.0000 C   0  0  0  0  0  0  0  0  0  0  0  0
    3.1584    1.7524    0.0000 C   0  0  0  0  0  0  0  0  0  0  0  0
    4.5334    2.3520    0.0000 C   0  0  0  0  0  0  0  0  0  0  0  0
    5.7401    1.4610    0.0000 C   0  0  0  0  0  0  0  0  0  0  0  0
    5.5719   -0.0295    0.0000 C   0  0  0  0  0  0  0  0  0  0  0  0
    6.7786   -0.9205    0.0000 C   0  0  0  0  0  0  0  0  0  0  0  0
    7.6695    0.2863    0.0000 C   0  0  0  0  0  0  0  0  0  0  0  0
    5.8876   -2.1272    0.0000 C   0  0  0  0  0  0  0  0  0  0  0  0
    7.9853   -1.8114    0.0000 C   0  0  0  0  0  0  0  0  0  0  0  0
    4.1969   -0.6291    0.0000 C   0  0  0  0  0  0  0  0  0  0  0  0
   -0.9665   -0.0463    0.0000 O   0  0  0  0  0  0  0  0  0  0  0  0
   -1.1347   -1.5368    0.0000 C   0  0  0  0  0  0  0  0  0  0  0  0
    0.0720   -2.4278    0.0000 C   0  0  0  0  0  0  0  0  0  0  0  0
   -0.0962   -3.9183    0.0000 C   0  0  0  0  0  0  0  0  0  0  0  0
   -1.4712   -4.5179    0.0000 C   0  0  0  0  0  0  0  0  0  0  0  0
   -2.6779   -3.6270    0.0000 C   0  0  0  0  0  0  0  0  0  0  0  0
   -4.0528   -4.2265    0.0000 C   0  0  0  0  0  0  0  0  0  0  0  0
   -3.4533   -5.6015    0.0000 C   0  0  0  0  0  0  0  0  0  0  0  0
   -4.6524   -2.8516    0.0000 C   0  0  0  0  0  0  0  0  0  0  0  0
   -5.4278   -4.8261    0.0000 C   0  0  0  0  0  0  0  0  0  0  0  0
   -2.5097   -2.1364    0.0000 C   0  0  0  0  0  0  0  0  0  0  0  0
   -2.0050    2.3352    0.0000 C   0  0  0  0  0  0  0  0  0  0  0  0
  1  2  1  0
  2  3  1  0
  2  4  1  0
  2  5  1  0
  5  6  2  0
  6  7  1  0
  7  8  2  0
  8  9  1  0
  9 10  1  0
 10 11  1  0
 11 12  1  0
 12 13  1  0
 13 14  2  0
 14 15  1  0
 15 16  2  0
 16 17  1  0
 17 18  1  0
 18 19  1  0
 18 20  1  0
 18 21  1  0
 17 22  2  0
 11 23  1  0
 23 24  1  0
 24 25  2  0
 25 26  1  0
 26 27  2  0
 27 28  1  0
 28 29  1  0
 29 30  1  0
 29 31  1  0
 29 32  1  0
 28 33  2  0
  9 34  2  0
 34  5  1  0
 22 13  1  0
 33 24  1  0
M  END
>  <linear_selectivity>  (686) 
74

>  <denticity>  (686) 
1

>  <ligand_class>  (686) 
phosphite

$$$$
P(O-2-tBu-Ph)3_90C_dioxane
     RDKit          2D

 34 36  0  0  0  0  0  0  0  0999 V2000
   -5.1862    4.0015    0.0000 C   0  0  0  0  0  0  0  0  0  0  0  0
   -4.5866    2.6266    0.0000 C   0  0  0  0  0  0  0  0  0  0  0  0
   -3.9871    1.2516    0.0000 C   0  0  0  0  0  0  0  0  0  0  0  0
   -5.9616    2.0270    0.0000 C   0  0  0  0  0  0  0  0  0  0  0  0
   -3.2117    3.2261    0.0000 C   0  0  0  0  0  0  0  0  0  0  0  0
   -3.0435    4.7167    0.0000 C   0  0  0  0  0  0  0  0  0  0  0  0
   -1.6685    5.3163    0.0000 C   0  0  0  0  0  0  0  0  0  0  0  0
   -0.4618    4.4253    0.0000 C   0  0  0  0  0  0  0  0  0  0  0  0
   -0.6300    2.9348    0.0000 C   0  0  0  0  0  0  0  0  0  0  0  0
    0.5767    2.0438    0.0000 O   0  0  0  0  0  0  0  0  0  0  0  0
    0.4085    0.5533    0.0000 P   0  0  0  0  0  0  0  0  0  0  0  0
    1.6152   -0.3377    0.0000 O   0  0  0  0  0  0  0  0  0  0  0  0
    2.9902    0.2619    0.0000 C   0  0  0  0  0  0  0  0  0  0  0  0
    3.1584    1.7524    0.0000 C   0  0  0  0  0  0  0  0  0  0  0  0
    4.5334    2.3520    0.0000 C   0  0  0  0  0  0  0  0  0  0  0  0
    5.7401    1.4610    0.0000 C   0  0  0  0  0  0  0  0  0  0  0  0
    5.5719   -0.0295    0.0000 C   0  0  0  0  0  0  0  0  0  0  0  0
    6.7786   -0.9205    0.0000 C   0  0  0  0  0  0  0  0  0  0  0  0
    7.6695    0.2863    0.0000 C   0  0  0  0  0  0  0  0  0  0  0  0
    5.8876   -2.1272    0.0000 C   0  0  0  0  0  0  0  0  0  0  0  0
    7.9853   -1.8114    0.0000 C   0  0  0  0  0  0  0  0  0  0  0  0
    4.1969   -0.6291    0.0000 C   0  0  0  0  0  0  0  0  0  0  0  0
   -0.9665   -0.0463    0.0000 O   0  0  0  0  0  0  0  0  0  0  0  0
   -1.1347   -1.5368    0.0000 C   0  0  0  0  0  0  0  0  0  0  0  0
    0.0720   -2.4278    0.0000 C   0  0  0  0  0  0  0  0  0  0  0  0
   -0.0962   -3.9183    0.0000 C   0  0  0  0  0  0  0  0  0  0  0  0
   -1.4712   -4.5179    0.0000 C   0  0  0  0  0  0  0  0  0  0  0  0
   -2.6779   -3.6270    0.0000 C   0  0  0  0  0  0  0  0  0  0  0  0
   -4.0528   -4.2265    0.0000 C   0  0  0  0  0  0  0  0  0  0  0  0
   -3.4533   -5.6015    0.0000 C   0  0  0  0  0  0  0  0  0  0  0  0
   -4.6524   -2.8516    0.0000 C   0  0  0  0  0  0  0  0  0  0  0  0
   -5.4278   -4.8261    0.0000 C   0  0  0  0  0  0  0  0  0  0  0  0
   -2.5097   -2.1364    0.0000 C   0  0  0  0  0  0  0  0  0  0  0  0
   -2.0050    2.3352    0.0000 C   0  0  0  0  0  0  0  0  0  0  0  0
  1  2  1  0
  2  3  1  0
  2  4  1  0
  2  5  1  0
  5  6  2  0
  6  7  1  0
  7  8  2  0
  8  9  1  0
  9 10  1  0
 10 11  1  0
 11 12  1  0
 12 13  1  0
 13 14  2  0
 14 15  1  0
 15 16  2  0
 16 17  1  0
 17 18  1  0
 18 19  1  0
 18 20  1  0
 18 21  1  0
 17 22  2  0
 11 23  1  0
 23 24  1  0
 24 25  2  0
 25 26  1  0
 26 27  2  0
 27 28  1  0
 28 29  1  0
 29 30  1  0
 29 31  1  0
 29 32  1  0
 28 33  2  0
  9 34  2  0
 34  5  1  0
 22 13  1  0
 33 24  1  0
M  END
>  <linear_selectivity>  (687) 
70

>  <denticity>  (687) 
1

>  <ligand_class>  (687) 
phosphite

$$$$
P(O-2-tBu-Ph)3_90C_hexane
     RDKit          2D

 34 36  0  0  0  0  0  0  0  0999 V2000
   -5.1862    4.0015    0.0000 C   0  0  0  0  0  0  0  0  0  0  0  0
   -4.5866    2.6266    0.0000 C   0  0  0  0  0  0  0  0  0  0  0  0
   -3.9871    1.2516    0.0000 C   0  0  0  0  0  0  0  0  0  0  0  0
   -5.9616    2.0270    0.0000 C   0  0  0  0  0  0  0  0  0  0  0  0
   -3.2117    3.2261    0.0000 C   0  0  0  0  0  0  0  0  0  0  0  0
   -3.0435    4.7167    0.0000 C   0  0  0  0  0  0  0  0  0  0  0  0
   -1.6685    5.3163    0.0000 C   0  0  0  0  0  0  0  0  0  0  0  0
   -0.4618    4.4253    0.0000 C   0  0  0  0  0  0  0  0  0  0  0  0
   -0.6300    2.9348    0.0000 C   0  0  0  0  0  0  0  0  0  0  0  0
    0.5767    2.0438    0.0000 O   0  0  0  0  0  0  0  0  0  0  0  0
    0.4085    0.5533    0.0000 P   0  0  0  0  0  0  0  0  0  0  0  0
    1.6152   -0.3377    0.0000 O   0  0  0  0  0  0  0  0  0  0  0  0
    2.9902    0.2619    0.0000 C   0  0  0  0  0  0  0  0  0  0  0  0
    3.1584    1.7524    0.0000 C   0  0  0  0  0  0  0  0  0  0  0  0
    4.5334    2.3520    0.0000 C   0  0  0  0  0  0  0  0  0  0  0  0
    5.7401    1.4610    0.0000 C   0  0  0  0  0  0  0  0  0  0  0  0
    5.5719   -0.0295    0.0000 C   0  0  0  0  0  0  0  0  0  0  0  0
    6.7786   -0.9205    0.0000 C   0  0  0  0  0  0  0  0  0  0  0  0
    7.6695    0.2863    0.0000 C   0  0  0  0  0  0  0  0  0  0  0  0
    5.8876   -2.1272    0.0000 C   0  0  0  0  0  0  0  0  0  0  0  0
    7.9853   -1.8114    0.0000 C   0  0  0  0  0  0  0  0  0  0  0  0
    4.1969   -0.6291    0.0000 C   0  0  0  0  0  0  0  0  0  0  0  0
   -0.9665   -0.0463    0.0000 O   0  0  0  0  0  0  0  0  0  0  0  0
   -1.1347   -1.5368    0.0000 C   0  0  0  0  0  0  0  0  0  0  0  0
    0.0720   -2.4278    0.0000 C   0  0  0  0  0  0  0  0  0  0  0  0
   -0.0962   -3.9183    0.0000 C   0  0  0  0  0  0  0  0  0  0  0  0
   -1.4712   -4.5179    0.0000 C   0  0  0  0  0  0  0  0  0  0  0  0
   -2.6779   -3.6270    0.0000 C   0  0  0  0  0  0  0  0  0  0  0  0
   -4.0528   -4.2265    0.0000 C   0  0  0  0  0  0  0  0  0  0  0  0
   -3.4533   -5.6015    0.0000 C   0  0  0  0  0  0  0  0  0  0  0  0
   -4.6524   -2.8516    0.0000 C   0  0  0  0  0  0  0  0  0  0  0  0
   -5.4278   -4.8261    0.0000 C   0  0  0  0  0  0  0  0  0  0  0  0
   -2.5097   -2.1364    0.0000 C   0  0  0  0  0  0  0  0  0  0  0  0
   -2.0050    2.3352    0.0000 C   0  0  0  0  0  0  0  0  0  0  0  0
  1  2  1  0
  2  3  1  0
  2  4  1  0
  2  5  1  0
  5  6  2  0
  6  7  1  0
  7  8  2  0
  8  9  1  0
  9 10  1  0
 10 11  1  0
 11 12  1  0
 12 13  1  0
 13 14  2  0
 14 15  1  0
 15 16  2  0
 16 17  1  0
 17 18  1  0
 18 19  1  0
 18 20  1  0
 18 21  1  0
 17 22  2  0
 11 23  1  0
 23 24  1  0
 24 25  2  0
 25 26  1  0
 26 27  2  0
 27 28  1  0
 28 29  1  0
 29 30  1  0
 29 31  1  0
 29 32  1  0
 28 33  2  0
  9 34  2  0
 34  5  1  0
 22 13  1  0
 33 24  1  0
M  END
>  <linear_selectivity>  (688) 
77

>  <denticity>  (688) 
1

>  <ligand_class>  (688) 
phosphite

$$$$
P(O-2-tBu-Ph)3_90C_xylene
     RDKit          2D

 34 36  0  0  0  0  0  0  0  0999 V2000
   -5.1862    4.0015    0.0000 C   0  0  0  0  0  0  0  0  0  0  0  0
   -4.5866    2.6266    0.0000 C   0  0  0  0  0  0  0  0  0  0  0  0
   -3.9871    1.2516    0.0000 C   0  0  0  0  0  0  0  0  0  0  0  0
   -5.9616    2.0270    0.0000 C   0  0  0  0  0  0  0  0  0  0  0  0
   -3.2117    3.2261    0.0000 C   0  0  0  0  0  0  0  0  0  0  0  0
   -3.0435    4.7167    0.0000 C   0  0  0  0  0  0  0  0  0  0  0  0
   -1.6685    5.3163    0.0000 C   0  0  0  0  0  0  0  0  0  0  0  0
   -0.4618    4.4253    0.0000 C   0  0  0  0  0  0  0  0  0  0  0  0
   -0.6300    2.9348    0.0000 C   0  0  0  0  0  0  0  0  0  0  0  0
    0.5767    2.0438    0.0000 O   0  0  0  0  0  0  0  0  0  0  0  0
    0.4085    0.5533    0.0000 P   0  0  0  0  0  0  0  0  0  0  0  0
    1.6152   -0.3377    0.0000 O   0  0  0  0  0  0  0  0  0  0  0  0
    2.9902    0.2619    0.0000 C   0  0  0  0  0  0  0  0  0  0  0  0
    3.1584    1.7524    0.0000 C   0  0  0  0  0  0  0  0  0  0  0  0
    4.5334    2.3520    0.0000 C   0  0  0  0  0  0  0  0  0  0  0  0
    5.7401    1.4610    0.0000 C   0  0  0  0  0  0  0  0  0  0  0  0
    5.5719   -0.0295    0.0000 C   0  0  0  0  0  0  0  0  0  0  0  0
    6.7786   -0.9205    0.0000 C   0  0  0  0  0  0  0  0  0  0  0  0
    7.6695    0.2863    0.0000 C   0  0  0  0  0  0  0  0  0  0  0  0
    5.8876   -2.1272    0.0000 C   0  0  0  0  0  0  0  0  0  0  0  0
    7.9853   -1.8114    0.0000 C   0  0  0  0  0  0  0  0  0  0  0  0
    4.1969   -0.6291    0.0000 C   0  0  0  0  0  0  0  0  0  0  0  0
   -0.9665   -0.0463    0.0000 O   0  0  0  0  0  0  0  0  0  0  0  0
   -1.1347   -1.5368    0.0000 C   0  0  0  0  0  0  0  0  0  0  0  0
    0.0720   -2.4278    0.0000 C   0  0  0  0  0  0  0  0  0  0  0  0
   -0.0962   -3.9183    0.0000 C   0  0  0  0  0  0  0  0  0  0  0  0
   -1.4712   -4.5179    0.0000 C   0  0  0  0  0  0  0  0  0  0  0  0
   -2.6779   -3.6270    0.0000 C   0  0  0  0  0  0  0  0  0  0  0  0
   -4.0528   -4.2265    0.0000 C   0  0  0  0  0  0  0  0  0  0  0  0
   -3.4533   -5.6015    0.0000 C   0  0  0  0  0  0  0  0  0  0  0  0
   -4.6524   -2.8516    0.0000 C   0  0  0  0  0  0  0  0  0  0  0  0
   -5.4278   -4.8261    0.0000 C   0  0  0  0  0  0  0  0  0  0  0  0
   -2.5097   -2.1364    0.0000 C   0  0  0  0  0  0  0  0  0  0  0  0
   -2.0050    2.3352    0.0000 C   0  0  0  0  0  0  0  0  0  0  0  0
  1  2  1  0
  2  3  1  0
  2  4  1  0
  2  5  1  0
  5  6  2  0
  6  7  1  0
  7  8  2  0
  8  9  1  0
  9 10  1  0
 10 11  1  0
 11 12  1  0
 12 13  1  0
 13 14  2  0
 14 15  1  0
 15 16  2  0
 16 17  1  0
 17 18  1  0
 18 19  1  0
 18 20  1  0
 18 21  1  0
 17 22  2  0
 11 23  1  0
 23 24  1  0
 24 25  2  0
 25 26  1  0
 26 27  2  0
 27 28  1  0
 28 29  1  0
 29 30  1  0
 29 31  1  0
 29 32  1  0
 28 33  2  0
  9 34  2  0
 34  5  1  0
 22 13  1  0
 33 24  1  0
M  END
>  <linear_selectivity>  (689) 
74

>  <denticity>  (689) 
1

>  <ligand_class>  (689) 
phosphite

$$$$
P(O-2-tBu-Ph)3_100C_toluene
     RDKit          2D

 34 36  0  0  0  0  0  0  0  0999 V2000
   -5.1862    4.0015    0.0000 C   0  0  0  0  0  0  0  0  0  0  0  0
   -4.5866    2.6266    0.0000 C   0  0  0  0  0  0  0  0  0  0  0  0
   -3.9871    1.2516    0.0000 C   0  0  0  0  0  0  0  0  0  0  0  0
   -5.9616    2.0270    0.0000 C   0  0  0  0  0  0  0  0  0  0  0  0
   -3.2117    3.2261    0.0000 C   0  0  0  0  0  0  0  0  0  0  0  0
   -3.0435    4.7167    0.0000 C   0  0  0  0  0  0  0  0  0  0  0  0
   -1.6685    5.3163    0.0000 C   0  0  0  0  0  0  0  0  0  0  0  0
   -0.4618    4.4253    0.0000 C   0  0  0  0  0  0  0  0  0  0  0  0
   -0.6300    2.9348    0.0000 C   0  0  0  0  0  0  0  0  0  0  0  0
    0.5767    2.0438    0.0000 O   0  0  0  0  0  0  0  0  0  0  0  0
    0.4085    0.5533    0.0000 P   0  0  0  0  0  0  0  0  0  0  0  0
    1.6152   -0.3377    0.0000 O   0  0  0  0  0  0  0  0  0  0  0  0
    2.9902    0.2619    0.0000 C   0  0  0  0  0  0  0  0  0  0  0  0
    3.1584    1.7524    0.0000 C   0  0  0  0  0  0  0  0  0  0  0  0
    4.5334    2.3520    0.0000 C   0  0  0  0  0  0  0  0  0  0  0  0
    5.7401    1.4610    0.0000 C   0  0  0  0  0  0  0  0  0  0  0  0
    5.5719   -0.0295    0.0000 C   0  0  0  0  0  0  0  0  0  0  0  0
    6.7786   -0.9205    0.0000 C   0  0  0  0  0  0  0  0  0  0  0  0
    7.6695    0.2863    0.0000 C   0  0  0  0  0  0  0  0  0  0  0  0
    5.8876   -2.1272    0.0000 C   0  0  0  0  0  0  0  0  0  0  0  0
    7.9853   -1.8114    0.0000 C   0  0  0  0  0  0  0  0  0  0  0  0
    4.1969   -0.6291    0.0000 C   0  0  0  0  0  0  0  0  0  0  0  0
   -0.9665   -0.0463    0.0000 O   0  0  0  0  0  0  0  0  0  0  0  0
   -1.1347   -1.5368    0.0000 C   0  0  0  0  0  0  0  0  0  0  0  0
    0.0720   -2.4278    0.0000 C   0  0  0  0  0  0  0  0  0  0  0  0
   -0.0962   -3.9183    0.0000 C   0  0  0  0  0  0  0  0  0  0  0  0
   -1.4712   -4.5179    0.0000 C   0  0  0  0  0  0  0  0  0  0  0  0
   -2.6779   -3.6270    0.0000 C   0  0  0  0  0  0  0  0  0  0  0  0
   -4.0528   -4.2265    0.0000 C   0  0  0  0  0  0  0  0  0  0  0  0
   -3.4533   -5.6015    0.0000 C   0  0  0  0  0  0  0  0  0  0  0  0
   -4.6524   -2.8516    0.0000 C   0  0  0  0  0  0  0  0  0  0  0  0
   -5.4278   -4.8261    0.0000 C   0  0  0  0  0  0  0  0  0  0  0  0
   -2.5097   -2.1364    0.0000 C   0  0  0  0  0  0  0  0  0  0  0  0
   -2.0050    2.3352    0.0000 C   0  0  0  0  0  0  0  0  0  0  0  0
  1  2  1  0
  2  3  1  0
  2  4  1  0
  2  5  1  0
  5  6  2  0
  6  7  1  0
  7  8  2  0
  8  9  1  0
  9 10  1  0
 10 11  1  0
 11 12  1  0
 12 13  1  0
 13 14  2  0
 14 15  1  0
 15 16  2  0
 16 17  1  0
 17 18  1  0
 18 19  1  0
 18 20  1  0
 18 21  1  0
 17 22  2  0
 11 23  1  0
 23 24  1  0
 24 25  2  0
 25 26  1  0
 26 27  2  0
 27 28  1  0
 28 29  1  0
 29 30  1  0
 29 31  1  0
 29 32  1  0
 28 33  2  0
  9 34  2  0
 34  5  1  0
 22 13  1  0
 33 24  1  0
M  END
>  <linear_selectivity>  (690) 
71

>  <denticity>  (690) 
1

>  <ligand_class>  (690) 
phosphite

$$$$
P(O-2-tBu-Ph)3_100C_hexane
     RDKit          2D

 34 36  0  0  0  0  0  0  0  0999 V2000
   -5.1862    4.0015    0.0000 C   0  0  0  0  0  0  0  0  0  0  0  0
   -4.5866    2.6266    0.0000 C   0  0  0  0  0  0  0  0  0  0  0  0
   -3.9871    1.2516    0.0000 C   0  0  0  0  0  0  0  0  0  0  0  0
   -5.9616    2.0270    0.0000 C   0  0  0  0  0  0  0  0  0  0  0  0
   -3.2117    3.2261    0.0000 C   0  0  0  0  0  0  0  0  0  0  0  0
   -3.0435    4.7167    0.0000 C   0  0  0  0  0  0  0  0  0  0  0  0
   -1.6685    5.3163    0.0000 C   0  0  0  0  0  0  0  0  0  0  0  0
   -0.4618    4.4253    0.0000 C   0  0  0  0  0  0  0  0  0  0  0  0
   -0.6300    2.9348    0.0000 C   0  0  0  0  0  0  0  0  0  0  0  0
    0.5767    2.0438    0.0000 O   0  0  0  0  0  0  0  0  0  0  0  0
    0.4085    0.5533    0.0000 P   0  0  0  0  0  0  0  0  0  0  0  0
    1.6152   -0.3377    0.0000 O   0  0  0  0  0  0  0  0  0  0  0  0
    2.9902    0.2619    0.0000 C   0  0  0  0  0  0  0  0  0  0  0  0
    3.1584    1.7524    0.0000 C   0  0  0  0  0  0  0  0  0  0  0  0
    4.5334    2.3520    0.0000 C   0  0  0  0  0  0  0  0  0  0  0  0
    5.7401    1.4610    0.0000 C   0  0  0  0  0  0  0  0  0  0  0  0
    5.5719   -0.0295    0.0000 C   0  0  0  0  0  0  0  0  0  0  0  0
    6.7786   -0.9205    0.0000 C   0  0  0  0  0  0  0  0  0  0  0  0
    7.6695    0.2863    0.0000 C   0  0  0  0  0  0  0  0  0  0  0  0
    5.8876   -2.1272    0.0000 C   0  0  0  0  0  0  0  0  0  0  0  0
    7.9853   -1.8114    0.0000 C   0  0  0  0  0  0  0  0  0  0  0  0
    4.1969   -0.6291    0.0000 C   0  0  0  0  0  0  0  0  0  0  0  0
   -0.9665   -0.0463    0.0000 O   0  0  0  0  0  0  0  0  0  0  0  0
   -1.1347   -1.5368    0.0000 C   0  0  0  0  0  0  0  0  0  0  0  0
    0.0720   -2.4278    0.0000 C   0  0  0  0  0  0  0  0  0  0  0  0
   -0.0962   -3.9183    0.0000 C   0  0  0  0  0  0  0  0  0  0  0  0
   -1.4712   -4.5179    0.0000 C   0  0  0  0  0  0  0  0  0  0  0  0
   -2.6779   -3.6270    0.0000 C   0  0  0  0  0  0  0  0  0  0  0  0
   -4.0528   -4.2265    0.0000 C   0  0  0  0  0  0  0  0  0  0  0  0
   -3.4533   -5.6015    0.0000 C   0  0  0  0  0  0  0  0  0  0  0  0
   -4.6524   -2.8516    0.0000 C   0  0  0  0  0  0  0  0  0  0  0  0
   -5.4278   -4.8261    0.0000 C   0  0  0  0  0  0  0  0  0  0  0  0
   -2.5097   -2.1364    0.0000 C   0  0  0  0  0  0  0  0  0  0  0  0
   -2.0050    2.3352    0.0000 C   0  0  0  0  0  0  0  0  0  0  0  0
  1  2  1  0
  2  3  1  0
  2  4  1  0
  2  5  1  0
  5  6  2  0
  6  7  1  0
  7  8  2  0
  8  9  1  0
  9 10  1  0
 10 11  1  0
 11 12  1  0
 12 13  1  0
 13 14  2  0
 14 15  1  0
 15 16  2  0
 16 17  1  0
 17 18  1  0
 18 19  1  0
 18 20  1  0
 18 21  1  0
 17 22  2  0
 11 23  1  0
 23 24  1  0
 24 25  2  0
 25 26  1  0
 26 27  2  0
 27 28  1  0
 28 29  1  0
 29 30  1  0
 29 31  1  0
 29 32  1  0
 28 33  2  0
  9 34  2  0
 34  5  1  0
 22 13  1  0
 33 24  1  0
M  END
>  <linear_selectivity>  (691) 
74

>  <denticity>  (691) 
1

>  <ligand_class>  (691) 
phosphite

$$$$
P(O-2-tBu-Ph)3_100C_xylene
     RDKit          2D

 34 36  0  0  0  0  0  0  0  0999 V2000
   -5.1862    4.0015    0.0000 C   0  0  0  0  0  0  0  0  0  0  0  0
   -4.5866    2.6266    0.0000 C   0  0  0  0  0  0  0  0  0  0  0  0
   -3.9871    1.2516    0.0000 C   0  0  0  0  0  0  0  0  0  0  0  0
   -5.9616    2.0270    0.0000 C   0  0  0  0  0  0  0  0  0  0  0  0
   -3.2117    3.2261    0.0000 C   0  0  0  0  0  0  0  0  0  0  0  0
   -3.0435    4.7167    0.0000 C   0  0  0  0  0  0  0  0  0  0  0  0
   -1.6685    5.3163    0.0000 C   0  0  0  0  0  0  0  0  0  0  0  0
   -0.4618    4.4253    0.0000 C   0  0  0  0  0  0  0  0  0  0  0  0
   -0.6300    2.9348    0.0000 C   0  0  0  0  0  0  0  0  0  0  0  0
    0.5767    2.0438    0.0000 O   0  0  0  0  0  0  0  0  0  0  0  0
    0.4085    0.5533    0.0000 P   0  0  0  0  0  0  0  0  0  0  0  0
    1.6152   -0.3377    0.0000 O   0  0  0  0  0  0  0  0  0  0  0  0
    2.9902    0.2619    0.0000 C   0  0  0  0  0  0  0  0  0  0  0  0
    3.1584    1.7524    0.0000 C   0  0  0  0  0  0  0  0  0  0  0  0
    4.5334    2.3520    0.0000 C   0  0  0  0  0  0  0  0  0  0  0  0
    5.7401    1.4610    0.0000 C   0  0  0  0  0  0  0  0  0  0  0  0
    5.5719   -0.0295    0.0000 C   0  0  0  0  0  0  0  0  0  0  0  0
    6.7786   -0.9205    0.0000 C   0  0  0  0  0  0  0  0  0  0  0  0
    7.6695    0.2863    0.0000 C   0  0  0  0  0  0  0  0  0  0  0  0
    5.8876   -2.1272    0.0000 C   0  0  0  0  0  0  0  0  0  0  0  0
    7.9853   -1.8114    0.0000 C   0  0  0  0  0  0  0  0  0  0  0  0
    4.1969   -0.6291    0.0000 C   0  0  0  0  0  0  0  0  0  0  0  0
   -0.9665   -0.0463    0.0000 O   0  0  0  0  0  0  0  0  0  0  0  0
   -1.1347   -1.5368    0.0000 C   0  0  0  0  0  0  0  0  0  0  0  0
    0.0720   -2.4278    0.0000 C   0  0  0  0  0  0  0  0  0  0  0  0
   -0.0962   -3.9183    0.0000 C   0  0  0  0  0  0  0  0  0  0  0  0
   -1.4712   -4.5179    0.0000 C   0  0  0  0  0  0  0  0  0  0  0  0
   -2.6779   -3.6270    0.0000 C   0  0  0  0  0  0  0  0  0  0  0  0
   -4.0528   -4.2265    0.0000 C   0  0  0  0  0  0  0  0  0  0  0  0
   -3.4533   -5.6015    0.0000 C   0  0  0  0  0  0  0  0  0  0  0  0
   -4.6524   -2.8516    0.0000 C   0  0  0  0  0  0  0  0  0  0  0  0
   -5.4278   -4.8261    0.0000 C   0  0  0  0  0  0  0  0  0  0  0  0
   -2.5097   -2.1364    0.0000 C   0  0  0  0  0  0  0  0  0  0  0  0
   -2.0050    2.3352    0.0000 C   0  0  0  0  0  0  0  0  0  0  0  0
  1  2  1  0
  2  3  1  0
  2  4  1  0
  2  5  1  0
  5  6  2  0
  6  7  1  0
  7  8  2  0
  8  9  1  0
  9 10  1  0
 10 11  1  0
 11 12  1  0
 12 13  1  0
 13 14  2  0
 14 15  1  0
 15 16  2  0
 16 17  1  0
 17 18  1  0
 18 19  1  0
 18 20  1  0
 18 21  1  0
 17 22  2  0
 11 23  1  0
 23 24  1  0
 24 25  2  0
 25 26  1  0
 26 27  2  0
 27 28  1  0
 28 29  1  0
 29 30  1  0
 29 31  1  0
 29 32  1  0
 28 33  2  0
  9 34  2  0
 34  5  1  0
 22 13  1  0
 33 24  1  0
M  END
>  <linear_selectivity>  (692) 
72

>  <denticity>  (692) 
1

>  <ligand_class>  (692) 
phosphite

$$$$
P(O-2-tBu-Ph)3_110C_toluene
     RDKit          2D

 34 36  0  0  0  0  0  0  0  0999 V2000
   -5.1862    4.0015    0.0000 C   0  0  0  0  0  0  0  0  0  0  0  0
   -4.5866    2.6266    0.0000 C   0  0  0  0  0  0  0  0  0  0  0  0
   -3.9871    1.2516    0.0000 C   0  0  0  0  0  0  0  0  0  0  0  0
   -5.9616    2.0270    0.0000 C   0  0  0  0  0  0  0  0  0  0  0  0
   -3.2117    3.2261    0.0000 C   0  0  0  0  0  0  0  0  0  0  0  0
   -3.0435    4.7167    0.0000 C   0  0  0  0  0  0  0  0  0  0  0  0
   -1.6685    5.3163    0.0000 C   0  0  0  0  0  0  0  0  0  0  0  0
   -0.4618    4.4253    0.0000 C   0  0  0  0  0  0  0  0  0  0  0  0
   -0.6300    2.9348    0.0000 C   0  0  0  0  0  0  0  0  0  0  0  0
    0.5767    2.0438    0.0000 O   0  0  0  0  0  0  0  0  0  0  0  0
    0.4085    0.5533    0.0000 P   0  0  0  0  0  0  0  0  0  0  0  0
    1.6152   -0.3377    0.0000 O   0  0  0  0  0  0  0  0  0  0  0  0
    2.9902    0.2619    0.0000 C   0  0  0  0  0  0  0  0  0  0  0  0
    3.1584    1.7524    0.0000 C   0  0  0  0  0  0  0  0  0  0  0  0
    4.5334    2.3520    0.0000 C   0  0  0  0  0  0  0  0  0  0  0  0
    5.7401    1.4610    0.0000 C   0  0  0  0  0  0  0  0  0  0  0  0
    5.5719   -0.0295    0.0000 C   0  0  0  0  0  0  0  0  0  0  0  0
    6.7786   -0.9205    0.0000 C   0  0  0  0  0  0  0  0  0  0  0  0
    7.6695    0.2863    0.0000 C   0  0  0  0  0  0  0  0  0  0  0  0
    5.8876   -2.1272    0.0000 C   0  0  0  0  0  0  0  0  0  0  0  0
    7.9853   -1.8114    0.0000 C   0  0  0  0  0  0  0  0  0  0  0  0
    4.1969   -0.6291    0.0000 C   0  0  0  0  0  0  0  0  0  0  0  0
   -0.9665   -0.0463    0.0000 O   0  0  0  0  0  0  0  0  0  0  0  0
   -1.1347   -1.5368    0.0000 C   0  0  0  0  0  0  0  0  0  0  0  0
    0.0720   -2.4278    0.0000 C   0  0  0  0  0  0  0  0  0  0  0  0
   -0.0962   -3.9183    0.0000 C   0  0  0  0  0  0  0  0  0  0  0  0
   -1.4712   -4.5179    0.0000 C   0  0  0  0  0  0  0  0  0  0  0  0
   -2.6779   -3.6270    0.0000 C   0  0  0  0  0  0  0  0  0  0  0  0
   -4.0528   -4.2265    0.0000 C   0  0  0  0  0  0  0  0  0  0  0  0
   -3.4533   -5.6015    0.0000 C   0  0  0  0  0  0  0  0  0  0  0  0
   -4.6524   -2.8516    0.0000 C   0  0  0  0  0  0  0  0  0  0  0  0
   -5.4278   -4.8261    0.0000 C   0  0  0  0  0  0  0  0  0  0  0  0
   -2.5097   -2.1364    0.0000 C   0  0  0  0  0  0  0  0  0  0  0  0
   -2.0050    2.3352    0.0000 C   0  0  0  0  0  0  0  0  0  0  0  0
  1  2  1  0
  2  3  1  0
  2  4  1  0
  2  5  1  0
  5  6  2  0
  6  7  1  0
  7  8  2  0
  8  9  1  0
  9 10  1  0
 10 11  1  0
 11 12  1  0
 12 13  1  0
 13 14  2  0
 14 15  1  0
 15 16  2  0
 16 17  1  0
 17 18  1  0
 18 19  1  0
 18 20  1  0
 18 21  1  0
 17 22  2  0
 11 23  1  0
 23 24  1  0
 24 25  2  0
 25 26  1  0
 26 27  2  0
 27 28  1  0
 28 29  1  0
 29 30  1  0
 29 31  1  0
 29 32  1  0
 28 33  2  0
  9 34  2  0
 34  5  1  0
 22 13  1  0
 33 24  1  0
M  END
>  <linear_selectivity>  (693) 
67

>  <denticity>  (693) 
1

>  <ligand_class>  (693) 
phosphite

$$$$
P(O-2-tBu-Ph)3_110C_THF
     RDKit          2D

 34 36  0  0  0  0  0  0  0  0999 V2000
   -5.1862    4.0015    0.0000 C   0  0  0  0  0  0  0  0  0  0  0  0
   -4.5866    2.6266    0.0000 C   0  0  0  0  0  0  0  0  0  0  0  0
   -3.9871    1.2516    0.0000 C   0  0  0  0  0  0  0  0  0  0  0  0
   -5.9616    2.0270    0.0000 C   0  0  0  0  0  0  0  0  0  0  0  0
   -3.2117    3.2261    0.0000 C   0  0  0  0  0  0  0  0  0  0  0  0
   -3.0435    4.7167    0.0000 C   0  0  0  0  0  0  0  0  0  0  0  0
   -1.6685    5.3163    0.0000 C   0  0  0  0  0  0  0  0  0  0  0  0
   -0.4618    4.4253    0.0000 C   0  0  0  0  0  0  0  0  0  0  0  0
   -0.6300    2.9348    0.0000 C   0  0  0  0  0  0  0  0  0  0  0  0
    0.5767    2.0438    0.0000 O   0  0  0  0  0  0  0  0  0  0  0  0
    0.4085    0.5533    0.0000 P   0  0  0  0  0  0  0  0  0  0  0  0
    1.6152   -0.3377    0.0000 O   0  0  0  0  0  0  0  0  0  0  0  0
    2.9902    0.2619    0.0000 C   0  0  0  0  0  0  0  0  0  0  0  0
    3.1584    1.7524    0.0000 C   0  0  0  0  0  0  0  0  0  0  0  0
    4.5334    2.3520    0.0000 C   0  0  0  0  0  0  0  0  0  0  0  0
    5.7401    1.4610    0.0000 C   0  0  0  0  0  0  0  0  0  0  0  0
    5.5719   -0.0295    0.0000 C   0  0  0  0  0  0  0  0  0  0  0  0
    6.7786   -0.9205    0.0000 C   0  0  0  0  0  0  0  0  0  0  0  0
    7.6695    0.2863    0.0000 C   0  0  0  0  0  0  0  0  0  0  0  0
    5.8876   -2.1272    0.0000 C   0  0  0  0  0  0  0  0  0  0  0  0
    7.9853   -1.8114    0.0000 C   0  0  0  0  0  0  0  0  0  0  0  0
    4.1969   -0.6291    0.0000 C   0  0  0  0  0  0  0  0  0  0  0  0
   -0.9665   -0.0463    0.0000 O   0  0  0  0  0  0  0  0  0  0  0  0
   -1.1347   -1.5368    0.0000 C   0  0  0  0  0  0  0  0  0  0  0  0
    0.0720   -2.4278    0.0000 C   0  0  0  0  0  0  0  0  0  0  0  0
   -0.0962   -3.9183    0.0000 C   0  0  0  0  0  0  0  0  0  0  0  0
   -1.4712   -4.5179    0.0000 C   0  0  0  0  0  0  0  0  0  0  0  0
   -2.6779   -3.6270    0.0000 C   0  0  0  0  0  0  0  0  0  0  0  0
   -4.0528   -4.2265    0.0000 C   0  0  0  0  0  0  0  0  0  0  0  0
   -3.4533   -5.6015    0.0000 C   0  0  0  0  0  0  0  0  0  0  0  0
   -4.6524   -2.8516    0.0000 C   0  0  0  0  0  0  0  0  0  0  0  0
   -5.4278   -4.8261    0.0000 C   0  0  0  0  0  0  0  0  0  0  0  0
   -2.5097   -2.1364    0.0000 C   0  0  0  0  0  0  0  0  0  0  0  0
   -2.0050    2.3352    0.0000 C   0  0  0  0  0  0  0  0  0  0  0  0
  1  2  1  0
  2  3  1  0
  2  4  1  0
  2  5  1  0
  5  6  2  0
  6  7  1  0
  7  8  2  0
  8  9  1  0
  9 10  1  0
 10 11  1  0
 11 12  1  0
 12 13  1  0
 13 14  2  0
 14 15  1  0
 15 16  2  0
 16 17  1  0
 17 18  1  0
 18 19  1  0
 18 20  1  0
 18 21  1  0
 17 22  2  0
 11 23  1  0
 23 24  1  0
 24 25  2  0
 25 26  1  0
 26 27  2  0
 27 28  1  0
 28 29  1  0
 29 30  1  0
 29 31  1  0
 29 32  1  0
 28 33  2  0
  9 34  2  0
 34  5  1  0
 22 13  1  0
 33 24  1  0
M  END
>  <linear_selectivity>  (694) 
67

>  <denticity>  (694) 
1

>  <ligand_class>  (694) 
phosphite

$$$$
P(O-2-tBu-Ph)3_110C_dioxane
     RDKit          2D

 34 36  0  0  0  0  0  0  0  0999 V2000
   -5.1862    4.0015    0.0000 C   0  0  0  0  0  0  0  0  0  0  0  0
   -4.5866    2.6266    0.0000 C   0  0  0  0  0  0  0  0  0  0  0  0
   -3.9871    1.2516    0.0000 C   0  0  0  0  0  0  0  0  0  0  0  0
   -5.9616    2.0270    0.0000 C   0  0  0  0  0  0  0  0  0  0  0  0
   -3.2117    3.2261    0.0000 C   0  0  0  0  0  0  0  0  0  0  0  0
   -3.0435    4.7167    0.0000 C   0  0  0  0  0  0  0  0  0  0  0  0
   -1.6685    5.3163    0.0000 C   0  0  0  0  0  0  0  0  0  0  0  0
   -0.4618    4.4253    0.0000 C   0  0  0  0  0  0  0  0  0  0  0  0
   -0.6300    2.9348    0.0000 C   0  0  0  0  0  0  0  0  0  0  0  0
    0.5767    2.0438    0.0000 O   0  0  0  0  0  0  0  0  0  0  0  0
    0.4085    0.5533    0.0000 P   0  0  0  0  0  0  0  0  0  0  0  0
    1.6152   -0.3377    0.0000 O   0  0  0  0  0  0  0  0  0  0  0  0
    2.9902    0.2619    0.0000 C   0  0  0  0  0  0  0  0  0  0  0  0
    3.1584    1.7524    0.0000 C   0  0  0  0  0  0  0  0  0  0  0  0
    4.5334    2.3520    0.0000 C   0  0  0  0  0  0  0  0  0  0  0  0
    5.7401    1.4610    0.0000 C   0  0  0  0  0  0  0  0  0  0  0  0
    5.5719   -0.0295    0.0000 C   0  0  0  0  0  0  0  0  0  0  0  0
    6.7786   -0.9205    0.0000 C   0  0  0  0  0  0  0  0  0  0  0  0
    7.6695    0.2863    0.0000 C   0  0  0  0  0  0  0  0  0  0  0  0
    5.8876   -2.1272    0.0000 C   0  0  0  0  0  0  0  0  0  0  0  0
    7.9853   -1.8114    0.0000 C   0  0  0  0  0  0  0  0  0  0  0  0
    4.1969   -0.6291    0.0000 C   0  0  0  0  0  0  0  0  0  0  0  0
   -0.9665   -0.0463    0.0000 O   0  0  0  0  0  0  0  0  0  0  0  0
   -1.1347   -1.5368    0.0000 C   0  0  0  0  0  0  0  0  0  0  0  0
    0.0720   -2.4278    0.0000 C   0  0  0  0  0  0  0  0  0  0  0  0
   -0.0962   -3.9183    0.0000 C   0  0  0  0  0  0  0  0  0  0  0  0
   -1.4712   -4.5179    0.0000 C   0  0  0  0  0  0  0  0  0  0  0  0
   -2.6779   -3.6270    0.0000 C   0  0  0  0  0  0  0  0  0  0  0  0
   -4.0528   -4.2265    0.0000 C   0  0  0  0  0  0  0  0  0  0  0  0
   -3.4533   -5.6015    0.0000 C   0  0  0  0  0  0  0  0  0  0  0  0
   -4.6524   -2.8516    0.0000 C   0  0  0  0  0  0  0  0  0  0  0  0
   -5.4278   -4.8261    0.0000 C   0  0  0  0  0  0  0  0  0  0  0  0
   -2.5097   -2.1364    0.0000 C   0  0  0  0  0  0  0  0  0  0  0  0
   -2.0050    2.3352    0.0000 C   0  0  0  0  0  0  0  0  0  0  0  0
  1  2  1  0
  2  3  1  0
  2  4  1  0
  2  5  1  0
  5  6  2  0
  6  7  1  0
  7  8  2  0
  8  9  1  0
  9 10  1  0
 10 11  1  0
 11 12  1  0
 12 13  1  0
 13 14  2  0
 14 15  1  0
 15 16  2  0
 16 17  1  0
 17 18  1  0
 18 19  1  0
 18 20  1  0
 18 21  1  0
 17 22  2  0
 11 23  1  0
 23 24  1  0
 24 25  2  0
 25 26  1  0
 26 27  2  0
 27 28  1  0
 28 29  1  0
 29 30  1  0
 29 31  1  0
 29 32  1  0
 28 33  2  0
  9 34  2  0
 34  5  1  0
 22 13  1  0
 33 24  1  0
M  END
>  <linear_selectivity>  (695) 
67

>  <denticity>  (695) 
1

>  <ligand_class>  (695) 
phosphite

$$$$
P(O-2-tBu-Ph)3_110C_xylene
     RDKit          2D

 34 36  0  0  0  0  0  0  0  0999 V2000
   -5.1862    4.0015    0.0000 C   0  0  0  0  0  0  0  0  0  0  0  0
   -4.5866    2.6266    0.0000 C   0  0  0  0  0  0  0  0  0  0  0  0
   -3.9871    1.2516    0.0000 C   0  0  0  0  0  0  0  0  0  0  0  0
   -5.9616    2.0270    0.0000 C   0  0  0  0  0  0  0  0  0  0  0  0
   -3.2117    3.2261    0.0000 C   0  0  0  0  0  0  0  0  0  0  0  0
   -3.0435    4.7167    0.0000 C   0  0  0  0  0  0  0  0  0  0  0  0
   -1.6685    5.3163    0.0000 C   0  0  0  0  0  0  0  0  0  0  0  0
   -0.4618    4.4253    0.0000 C   0  0  0  0  0  0  0  0  0  0  0  0
   -0.6300    2.9348    0.0000 C   0  0  0  0  0  0  0  0  0  0  0  0
    0.5767    2.0438    0.0000 O   0  0  0  0  0  0  0  0  0  0  0  0
    0.4085    0.5533    0.0000 P   0  0  0  0  0  0  0  0  0  0  0  0
    1.6152   -0.3377    0.0000 O   0  0  0  0  0  0  0  0  0  0  0  0
    2.9902    0.2619    0.0000 C   0  0  0  0  0  0  0  0  0  0  0  0
    3.1584    1.7524    0.0000 C   0  0  0  0  0  0  0  0  0  0  0  0
    4.5334    2.3520    0.0000 C   0  0  0  0  0  0  0  0  0  0  0  0
    5.7401    1.4610    0.0000 C   0  0  0  0  0  0  0  0  0  0  0  0
    5.5719   -0.0295    0.0000 C   0  0  0  0  0  0  0  0  0  0  0  0
    6.7786   -0.9205    0.0000 C   0  0  0  0  0  0  0  0  0  0  0  0
    7.6695    0.2863    0.0000 C   0  0  0  0  0  0  0  0  0  0  0  0
    5.8876   -2.1272    0.0000 C   0  0  0  0  0  0  0  0  0  0  0  0
    7.9853   -1.8114    0.0000 C   0  0  0  0  0  0  0  0  0  0  0  0
    4.1969   -0.6291    0.0000 C   0  0  0  0  0  0  0  0  0  0  0  0
   -0.9665   -0.0463    0.0000 O   0  0  0  0  0  0  0  0  0  0  0  0
   -1.1347   -1.5368    0.0000 C   0  0  0  0  0  0  0  0  0  0  0  0
    0.0720   -2.4278    0.0000 C   0  0  0  0  0  0  0  0  0  0  0  0
   -0.0962   -3.9183    0.0000 C   0  0  0  0  0  0  0  0  0  0  0  0
   -1.4712   -4.5179    0.0000 C   0  0  0  0  0  0  0  0  0  0  0  0
   -2.6779   -3.6270    0.0000 C   0  0  0  0  0  0  0  0  0  0  0  0
   -4.0528   -4.2265    0.0000 C   0  0  0  0  0  0  0  0  0  0  0  0
   -3.4533   -5.6015    0.0000 C   0  0  0  0  0  0  0  0  0  0  0  0
   -4.6524   -2.8516    0.0000 C   0  0  0  0  0  0  0  0  0  0  0  0
   -5.4278   -4.8261    0.0000 C   0  0  0  0  0  0  0  0  0  0  0  0
   -2.5097   -2.1364    0.0000 C   0  0  0  0  0  0  0  0  0  0  0  0
   -2.0050    2.3352    0.0000 C   0  0  0  0  0  0  0  0  0  0  0  0
  1  2  1  0
  2  3  1  0
  2  4  1  0
  2  5  1  0
  5  6  2  0
  6  7  1  0
  7  8  2  0
  8  9  1  0
  9 10  1  0
 10 11  1  0
 11 12  1  0
 12 13  1  0
 13 14  2  0
 14 15  1  0
 15 16  2  0
 16 17  1  0
 17 18  1  0
 18 19  1  0
 18 20  1  0
 18 21  1  0
 17 22  2  0
 11 23  1  0
 23 24  1  0
 24 25  2  0
 25 26  1  0
 26 27  2  0
 27 28  1  0
 28 29  1  0
 29 30  1  0
 29 31  1  0
 29 32  1  0
 28 33  2  0
  9 34  2  0
 34  5  1  0
 22 13  1  0
 33 24  1  0
M  END
>  <linear_selectivity>  (696) 
66

>  <denticity>  (696) 
1

>  <ligand_class>  (696) 
phosphite

$$$$
P(O-2-tBu-Ph)3_120C_toluene
     RDKit          2D

 34 36  0  0  0  0  0  0  0  0999 V2000
   -5.1862    4.0015    0.0000 C   0  0  0  0  0  0  0  0  0  0  0  0
   -4.5866    2.6266    0.0000 C   0  0  0  0  0  0  0  0  0  0  0  0
   -3.9871    1.2516    0.0000 C   0  0  0  0  0  0  0  0  0  0  0  0
   -5.9616    2.0270    0.0000 C   0  0  0  0  0  0  0  0  0  0  0  0
   -3.2117    3.2261    0.0000 C   0  0  0  0  0  0  0  0  0  0  0  0
   -3.0435    4.7167    0.0000 C   0  0  0  0  0  0  0  0  0  0  0  0
   -1.6685    5.3163    0.0000 C   0  0  0  0  0  0  0  0  0  0  0  0
   -0.4618    4.4253    0.0000 C   0  0  0  0  0  0  0  0  0  0  0  0
   -0.6300    2.9348    0.0000 C   0  0  0  0  0  0  0  0  0  0  0  0
    0.5767    2.0438    0.0000 O   0  0  0  0  0  0  0  0  0  0  0  0
    0.4085    0.5533    0.0000 P   0  0  0  0  0  0  0  0  0  0  0  0
    1.6152   -0.3377    0.0000 O   0  0  0  0  0  0  0  0  0  0  0  0
    2.9902    0.2619    0.0000 C   0  0  0  0  0  0  0  0  0  0  0  0
    3.1584    1.7524    0.0000 C   0  0  0  0  0  0  0  0  0  0  0  0
    4.5334    2.3520    0.0000 C   0  0  0  0  0  0  0  0  0  0  0  0
    5.7401    1.4610    0.0000 C   0  0  0  0  0  0  0  0  0  0  0  0
    5.5719   -0.0295    0.0000 C   0  0  0  0  0  0  0  0  0  0  0  0
    6.7786   -0.9205    0.0000 C   0  0  0  0  0  0  0  0  0  0  0  0
    7.6695    0.2863    0.0000 C   0  0  0  0  0  0  0  0  0  0  0  0
    5.8876   -2.1272    0.0000 C   0  0  0  0  0  0  0  0  0  0  0  0
    7.9853   -1.8114    0.0000 C   0  0  0  0  0  0  0  0  0  0  0  0
    4.1969   -0.6291    0.0000 C   0  0  0  0  0  0  0  0  0  0  0  0
   -0.9665   -0.0463    0.0000 O   0  0  0  0  0  0  0  0  0  0  0  0
   -1.1347   -1.5368    0.0000 C   0  0  0  0  0  0  0  0  0  0  0  0
    0.0720   -2.4278    0.0000 C   0  0  0  0  0  0  0  0  0  0  0  0
   -0.0962   -3.9183    0.0000 C   0  0  0  0  0  0  0  0  0  0  0  0
   -1.4712   -4.5179    0.0000 C   0  0  0  0  0  0  0  0  0  0  0  0
   -2.6779   -3.6270    0.0000 C   0  0  0  0  0  0  0  0  0  0  0  0
   -4.0528   -4.2265    0.0000 C   0  0  0  0  0  0  0  0  0  0  0  0
   -3.4533   -5.6015    0.0000 C   0  0  0  0  0  0  0  0  0  0  0  0
   -4.6524   -2.8516    0.0000 C   0  0  0  0  0  0  0  0  0  0  0  0
   -5.4278   -4.8261    0.0000 C   0  0  0  0  0  0  0  0  0  0  0  0
   -2.5097   -2.1364    0.0000 C   0  0  0  0  0  0  0  0  0  0  0  0
   -2.0050    2.3352    0.0000 C   0  0  0  0  0  0  0  0  0  0  0  0
  1  2  1  0
  2  3  1  0
  2  4  1  0
  2  5  1  0
  5  6  2  0
  6  7  1  0
  7  8  2  0
  8  9  1  0
  9 10  1  0
 10 11  1  0
 11 12  1  0
 12 13  1  0
 13 14  2  0
 14 15  1  0
 15 16  2  0
 16 17  1  0
 17 18  1  0
 18 19  1  0
 18 20  1  0
 18 21  1  0
 17 22  2  0
 11 23  1  0
 23 24  1  0
 24 25  2  0
 25 26  1  0
 26 27  2  0
 27 28  1  0
 28 29  1  0
 29 30  1  0
 29 31  1  0
 29 32  1  0
 28 33  2  0
  9 34  2  0
 34  5  1  0
 22 13  1  0
 33 24  1  0
M  END
>  <linear_selectivity>  (697) 
64

>  <denticity>  (697) 
1

>  <ligand_class>  (697) 
phosphite

$$$$
P(O-2-tBu-Ph)3_120C_THF
     RDKit          2D

 34 36  0  0  0  0  0  0  0  0999 V2000
   -5.1862    4.0015    0.0000 C   0  0  0  0  0  0  0  0  0  0  0  0
   -4.5866    2.6266    0.0000 C   0  0  0  0  0  0  0  0  0  0  0  0
   -3.9871    1.2516    0.0000 C   0  0  0  0  0  0  0  0  0  0  0  0
   -5.9616    2.0270    0.0000 C   0  0  0  0  0  0  0  0  0  0  0  0
   -3.2117    3.2261    0.0000 C   0  0  0  0  0  0  0  0  0  0  0  0
   -3.0435    4.7167    0.0000 C   0  0  0  0  0  0  0  0  0  0  0  0
   -1.6685    5.3163    0.0000 C   0  0  0  0  0  0  0  0  0  0  0  0
   -0.4618    4.4253    0.0000 C   0  0  0  0  0  0  0  0  0  0  0  0
   -0.6300    2.9348    0.0000 C   0  0  0  0  0  0  0  0  0  0  0  0
    0.5767    2.0438    0.0000 O   0  0  0  0  0  0  0  0  0  0  0  0
    0.4085    0.5533    0.0000 P   0  0  0  0  0  0  0  0  0  0  0  0
    1.6152   -0.3377    0.0000 O   0  0  0  0  0  0  0  0  0  0  0  0
    2.9902    0.2619    0.0000 C   0  0  0  0  0  0  0  0  0  0  0  0
    3.1584    1.7524    0.0000 C   0  0  0  0  0  0  0  0  0  0  0  0
    4.5334    2.3520    0.0000 C   0  0  0  0  0  0  0  0  0  0  0  0
    5.7401    1.4610    0.0000 C   0  0  0  0  0  0  0  0  0  0  0  0
    5.5719   -0.0295    0.0000 C   0  0  0  0  0  0  0  0  0  0  0  0
    6.7786   -0.9205    0.0000 C   0  0  0  0  0  0  0  0  0  0  0  0
    7.6695    0.2863    0.0000 C   0  0  0  0  0  0  0  0  0  0  0  0
    5.8876   -2.1272    0.0000 C   0  0  0  0  0  0  0  0  0  0  0  0
    7.9853   -1.8114    0.0000 C   0  0  0  0  0  0  0  0  0  0  0  0
    4.1969   -0.6291    0.0000 C   0  0  0  0  0  0  0  0  0  0  0  0
   -0.9665   -0.0463    0.0000 O   0  0  0  0  0  0  0  0  0  0  0  0
   -1.1347   -1.5368    0.0000 C   0  0  0  0  0  0  0  0  0  0  0  0
    0.0720   -2.4278    0.0000 C   0  0  0  0  0  0  0  0  0  0  0  0
   -0.0962   -3.9183    0.0000 C   0  0  0  0  0  0  0  0  0  0  0  0
   -1.4712   -4.5179    0.0000 C   0  0  0  0  0  0  0  0  0  0  0  0
   -2.6779   -3.6270    0.0000 C   0  0  0  0  0  0  0  0  0  0  0  0
   -4.0528   -4.2265    0.0000 C   0  0  0  0  0  0  0  0  0  0  0  0
   -3.4533   -5.6015    0.0000 C   0  0  0  0  0  0  0  0  0  0  0  0
   -4.6524   -2.8516    0.0000 C   0  0  0  0  0  0  0  0  0  0  0  0
   -5.4278   -4.8261    0.0000 C   0  0  0  0  0  0  0  0  0  0  0  0
   -2.5097   -2.1364    0.0000 C   0  0  0  0  0  0  0  0  0  0  0  0
   -2.0050    2.3352    0.0000 C   0  0  0  0  0  0  0  0  0  0  0  0
  1  2  1  0
  2  3  1  0
  2  4  1  0
  2  5  1  0
  5  6  2  0
  6  7  1  0
  7  8  2  0
  8  9  1  0
  9 10  1  0
 10 11  1  0
 11 12  1  0
 12 13  1  0
 13 14  2  0
 14 15  1  0
 15 16  2  0
 16 17  1  0
 17 18  1  0
 18 19  1  0
 18 20  1  0
 18 21  1  0
 17 22  2  0
 11 23  1  0
 23 24  1  0
 24 25  2  0
 25 26  1  0
 26 27  2  0
 27 28  1  0
 28 29  1  0
 29 30  1  0
 29 31  1  0
 29 32  1  0
 28 33  2  0
  9 34  2  0
 34  5  1  0
 22 13  1  0
 33 24  1  0
M  END
>  <linear_selectivity>  (698) 
61

>  <denticity>  (698) 
1

>  <ligand_class>  (698) 
phosphite

$$$$
P(O-2-tBu-Ph)3_120C_dioxane
     RDKit          2D

 34 36  0  0  0  0  0  0  0  0999 V2000
   -5.1862    4.0015    0.0000 C   0  0  0  0  0  0  0  0  0  0  0  0
   -4.5866    2.6266    0.0000 C   0  0  0  0  0  0  0  0  0  0  0  0
   -3.9871    1.2516    0.0000 C   0  0  0  0  0  0  0  0  0  0  0  0
   -5.9616    2.0270    0.0000 C   0  0  0  0  0  0  0  0  0  0  0  0
   -3.2117    3.2261    0.0000 C   0  0  0  0  0  0  0  0  0  0  0  0
   -3.0435    4.7167    0.0000 C   0  0  0  0  0  0  0  0  0  0  0  0
   -1.6685    5.3163    0.0000 C   0  0  0  0  0  0  0  0  0  0  0  0
   -0.4618    4.4253    0.0000 C   0  0  0  0  0  0  0  0  0  0  0  0
   -0.6300    2.9348    0.0000 C   0  0  0  0  0  0  0  0  0  0  0  0
    0.5767    2.0438    0.0000 O   0  0  0  0  0  0  0  0  0  0  0  0
    0.4085    0.5533    0.0000 P   0  0  0  0  0  0  0  0  0  0  0  0
    1.6152   -0.3377    0.0000 O   0  0  0  0  0  0  0  0  0  0  0  0
    2.9902    0.2619    0.0000 C   0  0  0  0  0  0  0  0  0  0  0  0
    3.1584    1.7524    0.0000 C   0  0  0  0  0  0  0  0  0  0  0  0
    4.5334    2.3520    0.0000 C   0  0  0  0  0  0  0  0  0  0  0  0
    5.7401    1.4610    0.0000 C   0  0  0  0  0  0  0  0  0  0  0  0
    5.5719   -0.0295    0.0000 C   0  0  0  0  0  0  0  0  0  0  0  0
    6.7786   -0.9205    0.0000 C   0  0  0  0  0  0  0  0  0  0  0  0
    7.6695    0.2863    0.0000 C   0  0  0  0  0  0  0  0  0  0  0  0
    5.8876   -2.1272    0.0000 C   0  0  0  0  0  0  0  0  0  0  0  0
    7.9853   -1.8114    0.0000 C   0  0  0  0  0  0  0  0  0  0  0  0
    4.1969   -0.6291    0.0000 C   0  0  0  0  0  0  0  0  0  0  0  0
   -0.9665   -0.0463    0.0000 O   0  0  0  0  0  0  0  0  0  0  0  0
   -1.1347   -1.5368    0.0000 C   0  0  0  0  0  0  0  0  0  0  0  0
    0.0720   -2.4278    0.0000 C   0  0  0  0  0  0  0  0  0  0  0  0
   -0.0962   -3.9183    0.0000 C   0  0  0  0  0  0  0  0  0  0  0  0
   -1.4712   -4.5179    0.0000 C   0  0  0  0  0  0  0  0  0  0  0  0
   -2.6779   -3.6270    0.0000 C   0  0  0  0  0  0  0  0  0  0  0  0
   -4.0528   -4.2265    0.0000 C   0  0  0  0  0  0  0  0  0  0  0  0
   -3.4533   -5.6015    0.0000 C   0  0  0  0  0  0  0  0  0  0  0  0
   -4.6524   -2.8516    0.0000 C   0  0  0  0  0  0  0  0  0  0  0  0
   -5.4278   -4.8261    0.0000 C   0  0  0  0  0  0  0  0  0  0  0  0
   -2.5097   -2.1364    0.0000 C   0  0  0  0  0  0  0  0  0  0  0  0
   -2.0050    2.3352    0.0000 C   0  0  0  0  0  0  0  0  0  0  0  0
  1  2  1  0
  2  3  1  0
  2  4  1  0
  2  5  1  0
  5  6  2  0
  6  7  1  0
  7  8  2  0
  8  9  1  0
  9 10  1  0
 10 11  1  0
 11 12  1  0
 12 13  1  0
 13 14  2  0
 14 15  1  0
 15 16  2  0
 16 17  1  0
 17 18  1  0
 18 19  1  0
 18 20  1  0
 18 21  1  0
 17 22  2  0
 11 23  1  0
 23 24  1  0
 24 25  2  0
 25 26  1  0
 26 27  2  0
 27 28  1  0
 28 29  1  0
 29 30  1  0
 29 31  1  0
 29 32  1  0
 28 33  2  0
  9 34  2  0
 34  5  1  0
 22 13  1  0
 33 24  1  0
M  END
>  <linear_selectivity>  (699) 
67

>  <denticity>  (699) 
1

>  <ligand_class>  (699) 
phosphite

$$$$
P(O-2-tBu-Ph)3_120C_benzene
     RDKit          2D

 34 36  0  0  0  0  0  0  0  0999 V2000
   -5.1862    4.0015    0.0000 C   0  0  0  0  0  0  0  0  0  0  0  0
   -4.5866    2.6266    0.0000 C   0  0  0  0  0  0  0  0  0  0  0  0
   -3.9871    1.2516    0.0000 C   0  0  0  0  0  0  0  0  0  0  0  0
   -5.9616    2.0270    0.0000 C   0  0  0  0  0  0  0  0  0  0  0  0
   -3.2117    3.2261    0.0000 C   0  0  0  0  0  0  0  0  0  0  0  0
   -3.0435    4.7167    0.0000 C   0  0  0  0  0  0  0  0  0  0  0  0
   -1.6685    5.3163    0.0000 C   0  0  0  0  0  0  0  0  0  0  0  0
   -0.4618    4.4253    0.0000 C   0  0  0  0  0  0  0  0  0  0  0  0
   -0.6300    2.9348    0.0000 C   0  0  0  0  0  0  0  0  0  0  0  0
    0.5767    2.0438    0.0000 O   0  0  0  0  0  0  0  0  0  0  0  0
    0.4085    0.5533    0.0000 P   0  0  0  0  0  0  0  0  0  0  0  0
    1.6152   -0.3377    0.0000 O   0  0  0  0  0  0  0  0  0  0  0  0
    2.9902    0.2619    0.0000 C   0  0  0  0  0  0  0  0  0  0  0  0
    3.1584    1.7524    0.0000 C   0  0  0  0  0  0  0  0  0  0  0  0
    4.5334    2.3520    0.0000 C   0  0  0  0  0  0  0  0  0  0  0  0
    5.7401    1.4610    0.0000 C   0  0  0  0  0  0  0  0  0  0  0  0
    5.5719   -0.0295    0.0000 C   0  0  0  0  0  0  0  0  0  0  0  0
    6.7786   -0.9205    0.0000 C   0  0  0  0  0  0  0  0  0  0  0  0
    7.6695    0.2863    0.0000 C   0  0  0  0  0  0  0  0  0  0  0  0
    5.8876   -2.1272    0.0000 C   0  0  0  0  0  0  0  0  0  0  0  0
    7.9853   -1.8114    0.0000 C   0  0  0  0  0  0  0  0  0  0  0  0
    4.1969   -0.6291    0.0000 C   0  0  0  0  0  0  0  0  0  0  0  0
   -0.9665   -0.0463    0.0000 O   0  0  0  0  0  0  0  0  0  0  0  0
   -1.1347   -1.5368    0.0000 C   0  0  0  0  0  0  0  0  0  0  0  0
    0.0720   -2.4278    0.0000 C   0  0  0  0  0  0  0  0  0  0  0  0
   -0.0962   -3.9183    0.0000 C   0  0  0  0  0  0  0  0  0  0  0  0
   -1.4712   -4.5179    0.0000 C   0  0  0  0  0  0  0  0  0  0  0  0
   -2.6779   -3.6270    0.0000 C   0  0  0  0  0  0  0  0  0  0  0  0
   -4.0528   -4.2265    0.0000 C   0  0  0  0  0  0  0  0  0  0  0  0
   -3.4533   -5.6015    0.0000 C   0  0  0  0  0  0  0  0  0  0  0  0
   -4.6524   -2.8516    0.0000 C   0  0  0  0  0  0  0  0  0  0  0  0
   -5.4278   -4.8261    0.0000 C   0  0  0  0  0  0  0  0  0  0  0  0
   -2.5097   -2.1364    0.0000 C   0  0  0  0  0  0  0  0  0  0  0  0
   -2.0050    2.3352    0.0000 C   0  0  0  0  0  0  0  0  0  0  0  0
  1  2  1  0
  2  3  1  0
  2  4  1  0
  2  5  1  0
  5  6  2  0
  6  7  1  0
  7  8  2  0
  8  9  1  0
  9 10  1  0
 10 11  1  0
 11 12  1  0
 12 13  1  0
 13 14  2  0
 14 15  1  0
 15 16  2  0
 16 17  1  0
 17 18  1  0
 18 19  1  0
 18 20  1  0
 18 21  1  0
 17 22  2  0
 11 23  1  0
 23 24  1  0
 24 25  2  0
 25 26  1  0
 26 27  2  0
 27 28  1  0
 28 29  1  0
 29 30  1  0
 29 31  1  0
 29 32  1  0
 28 33  2  0
  9 34  2  0
 34  5  1  0
 22 13  1  0
 33 24  1  0
M  END
>  <linear_selectivity>  (700) 
64

>  <denticity>  (700) 
1

>  <ligand_class>  (700) 
phosphite

$$$$
P(O-2-tBu-Ph)3_120C_xylene
     RDKit          2D

 34 36  0  0  0  0  0  0  0  0999 V2000
   -5.1862    4.0015    0.0000 C   0  0  0  0  0  0  0  0  0  0  0  0
   -4.5866    2.6266    0.0000 C   0  0  0  0  0  0  0  0  0  0  0  0
   -3.9871    1.2516    0.0000 C   0  0  0  0  0  0  0  0  0  0  0  0
   -5.9616    2.0270    0.0000 C   0  0  0  0  0  0  0  0  0  0  0  0
   -3.2117    3.2261    0.0000 C   0  0  0  0  0  0  0  0  0  0  0  0
   -3.0435    4.7167    0.0000 C   0  0  0  0  0  0  0  0  0  0  0  0
   -1.6685    5.3163    0.0000 C   0  0  0  0  0  0  0  0  0  0  0  0
   -0.4618    4.4253    0.0000 C   0  0  0  0  0  0  0  0  0  0  0  0
   -0.6300    2.9348    0.0000 C   0  0  0  0  0  0  0  0  0  0  0  0
    0.5767    2.0438    0.0000 O   0  0  0  0  0  0  0  0  0  0  0  0
    0.4085    0.5533    0.0000 P   0  0  0  0  0  0  0  0  0  0  0  0
    1.6152   -0.3377    0.0000 O   0  0  0  0  0  0  0  0  0  0  0  0
    2.9902    0.2619    0.0000 C   0  0  0  0  0  0  0  0  0  0  0  0
    3.1584    1.7524    0.0000 C   0  0  0  0  0  0  0  0  0  0  0  0
    4.5334    2.3520    0.0000 C   0  0  0  0  0  0  0  0  0  0  0  0
    5.7401    1.4610    0.0000 C   0  0  0  0  0  0  0  0  0  0  0  0
    5.5719   -0.0295    0.0000 C   0  0  0  0  0  0  0  0  0  0  0  0
    6.7786   -0.9205    0.0000 C   0  0  0  0  0  0  0  0  0  0  0  0
    7.6695    0.2863    0.0000 C   0  0  0  0  0  0  0  0  0  0  0  0
    5.8876   -2.1272    0.0000 C   0  0  0  0  0  0  0  0  0  0  0  0
    7.9853   -1.8114    0.0000 C   0  0  0  0  0  0  0  0  0  0  0  0
    4.1969   -0.6291    0.0000 C   0  0  0  0  0  0  0  0  0  0  0  0
   -0.9665   -0.0463    0.0000 O   0  0  0  0  0  0  0  0  0  0  0  0
   -1.1347   -1.5368    0.0000 C   0  0  0  0  0  0  0  0  0  0  0  0
    0.0720   -2.4278    0.0000 C   0  0  0  0  0  0  0  0  0  0  0  0
   -0.0962   -3.9183    0.0000 C   0  0  0  0  0  0  0  0  0  0  0  0
   -1.4712   -4.5179    0.0000 C   0  0  0  0  0  0  0  0  0  0  0  0
   -2.6779   -3.6270    0.0000 C   0  0  0  0  0  0  0  0  0  0  0  0
   -4.0528   -4.2265    0.0000 C   0  0  0  0  0  0  0  0  0  0  0  0
   -3.4533   -5.6015    0.0000 C   0  0  0  0  0  0  0  0  0  0  0  0
   -4.6524   -2.8516    0.0000 C   0  0  0  0  0  0  0  0  0  0  0  0
   -5.4278   -4.8261    0.0000 C   0  0  0  0  0  0  0  0  0  0  0  0
   -2.5097   -2.1364    0.0000 C   0  0  0  0  0  0  0  0  0  0  0  0
   -2.0050    2.3352    0.0000 C   0  0  0  0  0  0  0  0  0  0  0  0
  1  2  1  0
  2  3  1  0
  2  4  1  0
  2  5  1  0
  5  6  2  0
  6  7  1  0
  7  8  2  0
  8  9  1  0
  9 10  1  0
 10 11  1  0
 11 12  1  0
 12 13  1  0
 13 14  2  0
 14 15  1  0
 15 16  2  0
 16 17  1  0
 17 18  1  0
 18 19  1  0
 18 20  1  0
 18 21  1  0
 17 22  2  0
 11 23  1  0
 23 24  1  0
 24 25  2  0
 25 26  1  0
 26 27  2  0
 27 28  1  0
 28 29  1  0
 29 30  1  0
 29 31  1  0
 29 32  1  0
 28 33  2  0
  9 34  2  0
 34  5  1  0
 22 13  1  0
 33 24  1  0
M  END
>  <linear_selectivity>  (701) 
68

>  <denticity>  (701) 
1

>  <ligand_class>  (701) 
phosphite

$$$$
P(O-2-tBu-Ph)3_130C_dioxane
     RDKit          2D

 34 36  0  0  0  0  0  0  0  0999 V2000
   -5.1862    4.0015    0.0000 C   0  0  0  0  0  0  0  0  0  0  0  0
   -4.5866    2.6266    0.0000 C   0  0  0  0  0  0  0  0  0  0  0  0
   -3.9871    1.2516    0.0000 C   0  0  0  0  0  0  0  0  0  0  0  0
   -5.9616    2.0270    0.0000 C   0  0  0  0  0  0  0  0  0  0  0  0
   -3.2117    3.2261    0.0000 C   0  0  0  0  0  0  0  0  0  0  0  0
   -3.0435    4.7167    0.0000 C   0  0  0  0  0  0  0  0  0  0  0  0
   -1.6685    5.3163    0.0000 C   0  0  0  0  0  0  0  0  0  0  0  0
   -0.4618    4.4253    0.0000 C   0  0  0  0  0  0  0  0  0  0  0  0
   -0.6300    2.9348    0.0000 C   0  0  0  0  0  0  0  0  0  0  0  0
    0.5767    2.0438    0.0000 O   0  0  0  0  0  0  0  0  0  0  0  0
    0.4085    0.5533    0.0000 P   0  0  0  0  0  0  0  0  0  0  0  0
    1.6152   -0.3377    0.0000 O   0  0  0  0  0  0  0  0  0  0  0  0
    2.9902    0.2619    0.0000 C   0  0  0  0  0  0  0  0  0  0  0  0
    3.1584    1.7524    0.0000 C   0  0  0  0  0  0  0  0  0  0  0  0
    4.5334    2.3520    0.0000 C   0  0  0  0  0  0  0  0  0  0  0  0
    5.7401    1.4610    0.0000 C   0  0  0  0  0  0  0  0  0  0  0  0
    5.5719   -0.0295    0.0000 C   0  0  0  0  0  0  0  0  0  0  0  0
    6.7786   -0.9205    0.0000 C   0  0  0  0  0  0  0  0  0  0  0  0
    7.6695    0.2863    0.0000 C   0  0  0  0  0  0  0  0  0  0  0  0
    5.8876   -2.1272    0.0000 C   0  0  0  0  0  0  0  0  0  0  0  0
    7.9853   -1.8114    0.0000 C   0  0  0  0  0  0  0  0  0  0  0  0
    4.1969   -0.6291    0.0000 C   0  0  0  0  0  0  0  0  0  0  0  0
   -0.9665   -0.0463    0.0000 O   0  0  0  0  0  0  0  0  0  0  0  0
   -1.1347   -1.5368    0.0000 C   0  0  0  0  0  0  0  0  0  0  0  0
    0.0720   -2.4278    0.0000 C   0  0  0  0  0  0  0  0  0  0  0  0
   -0.0962   -3.9183    0.0000 C   0  0  0  0  0  0  0  0  0  0  0  0
   -1.4712   -4.5179    0.0000 C   0  0  0  0  0  0  0  0  0  0  0  0
   -2.6779   -3.6270    0.0000 C   0  0  0  0  0  0  0  0  0  0  0  0
   -4.0528   -4.2265    0.0000 C   0  0  0  0  0  0  0  0  0  0  0  0
   -3.4533   -5.6015    0.0000 C   0  0  0  0  0  0  0  0  0  0  0  0
   -4.6524   -2.8516    0.0000 C   0  0  0  0  0  0  0  0  0  0  0  0
   -5.4278   -4.8261    0.0000 C   0  0  0  0  0  0  0  0  0  0  0  0
   -2.5097   -2.1364    0.0000 C   0  0  0  0  0  0  0  0  0  0  0  0
   -2.0050    2.3352    0.0000 C   0  0  0  0  0  0  0  0  0  0  0  0
  1  2  1  0
  2  3  1  0
  2  4  1  0
  2  5  1  0
  5  6  2  0
  6  7  1  0
  7  8  2  0
  8  9  1  0
  9 10  1  0
 10 11  1  0
 11 12  1  0
 12 13  1  0
 13 14  2  0
 14 15  1  0
 15 16  2  0
 16 17  1  0
 17 18  1  0
 18 19  1  0
 18 20  1  0
 18 21  1  0
 17 22  2  0
 11 23  1  0
 23 24  1  0
 24 25  2  0
 25 26  1  0
 26 27  2  0
 27 28  1  0
 28 29  1  0
 29 30  1  0
 29 31  1  0
 29 32  1  0
 28 33  2  0
  9 34  2  0
 34  5  1  0
 22 13  1  0
 33 24  1  0
M  END
>  <linear_selectivity>  (702) 
61

>  <denticity>  (702) 
1

>  <ligand_class>  (702) 
phosphite

$$$$
P(O-2-tBu-Ph)3_130C_hexane
     RDKit          2D

 34 36  0  0  0  0  0  0  0  0999 V2000
   -5.1862    4.0015    0.0000 C   0  0  0  0  0  0  0  0  0  0  0  0
   -4.5866    2.6266    0.0000 C   0  0  0  0  0  0  0  0  0  0  0  0
   -3.9871    1.2516    0.0000 C   0  0  0  0  0  0  0  0  0  0  0  0
   -5.9616    2.0270    0.0000 C   0  0  0  0  0  0  0  0  0  0  0  0
   -3.2117    3.2261    0.0000 C   0  0  0  0  0  0  0  0  0  0  0  0
   -3.0435    4.7167    0.0000 C   0  0  0  0  0  0  0  0  0  0  0  0
   -1.6685    5.3163    0.0000 C   0  0  0  0  0  0  0  0  0  0  0  0
   -0.4618    4.4253    0.0000 C   0  0  0  0  0  0  0  0  0  0  0  0
   -0.6300    2.9348    0.0000 C   0  0  0  0  0  0  0  0  0  0  0  0
    0.5767    2.0438    0.0000 O   0  0  0  0  0  0  0  0  0  0  0  0
    0.4085    0.5533    0.0000 P   0  0  0  0  0  0  0  0  0  0  0  0
    1.6152   -0.3377    0.0000 O   0  0  0  0  0  0  0  0  0  0  0  0
    2.9902    0.2619    0.0000 C   0  0  0  0  0  0  0  0  0  0  0  0
    3.1584    1.7524    0.0000 C   0  0  0  0  0  0  0  0  0  0  0  0
    4.5334    2.3520    0.0000 C   0  0  0  0  0  0  0  0  0  0  0  0
    5.7401    1.4610    0.0000 C   0  0  0  0  0  0  0  0  0  0  0  0
    5.5719   -0.0295    0.0000 C   0  0  0  0  0  0  0  0  0  0  0  0
    6.7786   -0.9205    0.0000 C   0  0  0  0  0  0  0  0  0  0  0  0
    7.6695    0.2863    0.0000 C   0  0  0  0  0  0  0  0  0  0  0  0
    5.8876   -2.1272    0.0000 C   0  0  0  0  0  0  0  0  0  0  0  0
    7.9853   -1.8114    0.0000 C   0  0  0  0  0  0  0  0  0  0  0  0
    4.1969   -0.6291    0.0000 C   0  0  0  0  0  0  0  0  0  0  0  0
   -0.9665   -0.0463    0.0000 O   0  0  0  0  0  0  0  0  0  0  0  0
   -1.1347   -1.5368    0.0000 C   0  0  0  0  0  0  0  0  0  0  0  0
    0.0720   -2.4278    0.0000 C   0  0  0  0  0  0  0  0  0  0  0  0
   -0.0962   -3.9183    0.0000 C   0  0  0  0  0  0  0  0  0  0  0  0
   -1.4712   -4.5179    0.0000 C   0  0  0  0  0  0  0  0  0  0  0  0
   -2.6779   -3.6270    0.0000 C   0  0  0  0  0  0  0  0  0  0  0  0
   -4.0528   -4.2265    0.0000 C   0  0  0  0  0  0  0  0  0  0  0  0
   -3.4533   -5.6015    0.0000 C   0  0  0  0  0  0  0  0  0  0  0  0
   -4.6524   -2.8516    0.0000 C   0  0  0  0  0  0  0  0  0  0  0  0
   -5.4278   -4.8261    0.0000 C   0  0  0  0  0  0  0  0  0  0  0  0
   -2.5097   -2.1364    0.0000 C   0  0  0  0  0  0  0  0  0  0  0  0
   -2.0050    2.3352    0.0000 C   0  0  0  0  0  0  0  0  0  0  0  0
  1  2  1  0
  2  3  1  0
  2  4  1  0
  2  5  1  0
  5  6  2  0
  6  7  1  0
  7  8  2  0
  8  9  1  0
  9 10  1  0
 10 11  1  0
 11 12  1  0
 12 13  1  0
 13 14  2  0
 14 15  1  0
 15 16  2  0
 16 17  1  0
 17 18  1  0
 18 19  1  0
 18 20  1  0
 18 21  1  0
 17 22  2  0
 11 23  1  0
 23 24  1  0
 24 25  2  0
 25 26  1  0
 26 27  2  0
 27 28  1  0
 28 29  1  0
 29 30  1  0
 29 31  1  0
 29 32  1  0
 28 33  2  0
  9 34  2  0
 34  5  1  0
 22 13  1  0
 33 24  1  0
M  END
>  <linear_selectivity>  (703) 
69

>  <denticity>  (703) 
1

>  <ligand_class>  (703) 
phosphite

$$$$
P(OEt)3
     RDKit          2D

 10  9  0  0  0  0  0  0  0  0999 V2000
   -4.3182   -0.2699    0.0000 C   0  0  0  0  0  0  0  0  0  0  0  0
   -2.8875    0.1805    0.0000 C   0  0  0  0  0  0  0  0  0  0  0  0
   -1.7820   -0.8334    0.0000 O   0  0  0  0  0  0  0  0  0  0  0  0
   -0.3512   -0.3829    0.0000 P   0  0  0  0  0  0  0  0  0  0  0  0
    0.7543   -1.3968    0.0000 O   0  0  0  0  0  0  0  0  0  0  0  0
    2.1850   -0.9464    0.0000 C   0  0  0  0  0  0  0  0  0  0  0  0
    3.2905   -1.9603    0.0000 C   0  0  0  0  0  0  0  0  0  0  0  0
   -0.0259    1.0814    0.0000 O   0  0  0  0  0  0  0  0  0  0  0  0
    1.4049    1.5318    0.0000 C   0  0  0  0  0  0  0  0  0  0  0  0
    1.7302    2.9961    0.0000 C   0  0  0  0  0  0  0  0  0  0  0  0
  1  2  1  0
  2  3  1  0
  3  4  1  0
  4  5  1  0
  5  6  1  0
  6  7  1  0
  4  8  1  0
  8  9  1  0
  9 10  1  0
M  END
>  <linear_selectivity>  (704) 
28

>  <denticity>  (704) 
1

>  <ligand_class>  (704) 
phosphite

$$$$
P(OEt)3_70C_toluene
     RDKit          2D

 10  9  0  0  0  0  0  0  0  0999 V2000
   -4.3182   -0.2699    0.0000 C   0  0  0  0  0  0  0  0  0  0  0  0
   -2.8875    0.1805    0.0000 C   0  0  0  0  0  0  0  0  0  0  0  0
   -1.7820   -0.8334    0.0000 O   0  0  0  0  0  0  0  0  0  0  0  0
   -0.3512   -0.3829    0.0000 P   0  0  0  0  0  0  0  0  0  0  0  0
    0.7543   -1.3968    0.0000 O   0  0  0  0  0  0  0  0  0  0  0  0
    2.1850   -0.9464    0.0000 C   0  0  0  0  0  0  0  0  0  0  0  0
    3.2905   -1.9603    0.0000 C   0  0  0  0  0  0  0  0  0  0  0  0
   -0.0259    1.0814    0.0000 O   0  0  0  0  0  0  0  0  0  0  0  0
    1.4049    1.5318    0.0000 C   0  0  0  0  0  0  0  0  0  0  0  0
    1.7302    2.9961    0.0000 C   0  0  0  0  0  0  0  0  0  0  0  0
  1  2  1  0
  2  3  1  0
  3  4  1  0
  4  5  1  0
  5  6  1  0
  6  7  1  0
  4  8  1  0
  8  9  1  0
  9 10  1  0
M  END
>  <linear_selectivity>  (705) 
35

>  <denticity>  (705) 
1

>  <ligand_class>  (705) 
phosphite

$$$$
P(OEt)3_70C_dioxane
     RDKit          2D

 10  9  0  0  0  0  0  0  0  0999 V2000
   -4.3182   -0.2699    0.0000 C   0  0  0  0  0  0  0  0  0  0  0  0
   -2.8875    0.1805    0.0000 C   0  0  0  0  0  0  0  0  0  0  0  0
   -1.7820   -0.8334    0.0000 O   0  0  0  0  0  0  0  0  0  0  0  0
   -0.3512   -0.3829    0.0000 P   0  0  0  0  0  0  0  0  0  0  0  0
    0.7543   -1.3968    0.0000 O   0  0  0  0  0  0  0  0  0  0  0  0
    2.1850   -0.9464    0.0000 C   0  0  0  0  0  0  0  0  0  0  0  0
    3.2905   -1.9603    0.0000 C   0  0  0  0  0  0  0  0  0  0  0  0
   -0.0259    1.0814    0.0000 O   0  0  0  0  0  0  0  0  0  0  0  0
    1.4049    1.5318    0.0000 C   0  0  0  0  0  0  0  0  0  0  0  0
    1.7302    2.9961    0.0000 C   0  0  0  0  0  0  0  0  0  0  0  0
  1  2  1  0
  2  3  1  0
  3  4  1  0
  4  5  1  0
  5  6  1  0
  6  7  1  0
  4  8  1  0
  8  9  1  0
  9 10  1  0
M  END
>  <linear_selectivity>  (706) 
34

>  <denticity>  (706) 
1

>  <ligand_class>  (706) 
phosphite

$$$$
P(OEt)3_70C_hexane
     RDKit          2D

 10  9  0  0  0  0  0  0  0  0999 V2000
   -4.3182   -0.2699    0.0000 C   0  0  0  0  0  0  0  0  0  0  0  0
   -2.8875    0.1805    0.0000 C   0  0  0  0  0  0  0  0  0  0  0  0
   -1.7820   -0.8334    0.0000 O   0  0  0  0  0  0  0  0  0  0  0  0
   -0.3512   -0.3829    0.0000 P   0  0  0  0  0  0  0  0  0  0  0  0
    0.7543   -1.3968    0.0000 O   0  0  0  0  0  0  0  0  0  0  0  0
    2.1850   -0.9464    0.0000 C   0  0  0  0  0  0  0  0  0  0  0  0
    3.2905   -1.9603    0.0000 C   0  0  0  0  0  0  0  0  0  0  0  0
   -0.0259    1.0814    0.0000 O   0  0  0  0  0  0  0  0  0  0  0  0
    1.4049    1.5318    0.0000 C   0  0  0  0  0  0  0  0  0  0  0  0
    1.7302    2.9961    0.0000 C   0  0  0  0  0  0  0  0  0  0  0  0
  1  2  1  0
  2  3  1  0
  3  4  1  0
  4  5  1  0
  5  6  1  0
  6  7  1  0
  4  8  1  0
  8  9  1  0
  9 10  1  0
M  END
>  <linear_selectivity>  (707) 
31

>  <denticity>  (707) 
1

>  <ligand_class>  (707) 
phosphite

$$$$
P(OEt)3_70C_benzene
     RDKit          2D

 10  9  0  0  0  0  0  0  0  0999 V2000
   -4.3182   -0.2699    0.0000 C   0  0  0  0  0  0  0  0  0  0  0  0
   -2.8875    0.1805    0.0000 C   0  0  0  0  0  0  0  0  0  0  0  0
   -1.7820   -0.8334    0.0000 O   0  0  0  0  0  0  0  0  0  0  0  0
   -0.3512   -0.3829    0.0000 P   0  0  0  0  0  0  0  0  0  0  0  0
    0.7543   -1.3968    0.0000 O   0  0  0  0  0  0  0  0  0  0  0  0
    2.1850   -0.9464    0.0000 C   0  0  0  0  0  0  0  0  0  0  0  0
    3.2905   -1.9603    0.0000 C   0  0  0  0  0  0  0  0  0  0  0  0
   -0.0259    1.0814    0.0000 O   0  0  0  0  0  0  0  0  0  0  0  0
    1.4049    1.5318    0.0000 C   0  0  0  0  0  0  0  0  0  0  0  0
    1.7302    2.9961    0.0000 C   0  0  0  0  0  0  0  0  0  0  0  0
  1  2  1  0
  2  3  1  0
  3  4  1  0
  4  5  1  0
  5  6  1  0
  6  7  1  0
  4  8  1  0
  8  9  1  0
  9 10  1  0
M  END
>  <linear_selectivity>  (708) 
34

>  <denticity>  (708) 
1

>  <ligand_class>  (708) 
phosphite

$$$$
P(OEt)3_80C_toluene
     RDKit          2D

 10  9  0  0  0  0  0  0  0  0999 V2000
   -4.3182   -0.2699    0.0000 C   0  0  0  0  0  0  0  0  0  0  0  0
   -2.8875    0.1805    0.0000 C   0  0  0  0  0  0  0  0  0  0  0  0
   -1.7820   -0.8334    0.0000 O   0  0  0  0  0  0  0  0  0  0  0  0
   -0.3512   -0.3829    0.0000 P   0  0  0  0  0  0  0  0  0  0  0  0
    0.7543   -1.3968    0.0000 O   0  0  0  0  0  0  0  0  0  0  0  0
    2.1850   -0.9464    0.0000 C   0  0  0  0  0  0  0  0  0  0  0  0
    3.2905   -1.9603    0.0000 C   0  0  0  0  0  0  0  0  0  0  0  0
   -0.0259    1.0814    0.0000 O   0  0  0  0  0  0  0  0  0  0  0  0
    1.4049    1.5318    0.0000 C   0  0  0  0  0  0  0  0  0  0  0  0
    1.7302    2.9961    0.0000 C   0  0  0  0  0  0  0  0  0  0  0  0
  1  2  1  0
  2  3  1  0
  3  4  1  0
  4  5  1  0
  5  6  1  0
  6  7  1  0
  4  8  1  0
  8  9  1  0
  9 10  1  0
M  END
>  <linear_selectivity>  (709) 
33

>  <denticity>  (709) 
1

>  <ligand_class>  (709) 
phosphite

$$$$
P(OEt)3_80C_THF
     RDKit          2D

 10  9  0  0  0  0  0  0  0  0999 V2000
   -4.3182   -0.2699    0.0000 C   0  0  0  0  0  0  0  0  0  0  0  0
   -2.8875    0.1805    0.0000 C   0  0  0  0  0  0  0  0  0  0  0  0
   -1.7820   -0.8334    0.0000 O   0  0  0  0  0  0  0  0  0  0  0  0
   -0.3512   -0.3829    0.0000 P   0  0  0  0  0  0  0  0  0  0  0  0
    0.7543   -1.3968    0.0000 O   0  0  0  0  0  0  0  0  0  0  0  0
    2.1850   -0.9464    0.0000 C   0  0  0  0  0  0  0  0  0  0  0  0
    3.2905   -1.9603    0.0000 C   0  0  0  0  0  0  0  0  0  0  0  0
   -0.0259    1.0814    0.0000 O   0  0  0  0  0  0  0  0  0  0  0  0
    1.4049    1.5318    0.0000 C   0  0  0  0  0  0  0  0  0  0  0  0
    1.7302    2.9961    0.0000 C   0  0  0  0  0  0  0  0  0  0  0  0
  1  2  1  0
  2  3  1  0
  3  4  1  0
  4  5  1  0
  5  6  1  0
  6  7  1  0
  4  8  1  0
  8  9  1  0
  9 10  1  0
M  END
>  <linear_selectivity>  (710) 
28

>  <denticity>  (710) 
1

>  <ligand_class>  (710) 
phosphite

$$$$
P(OEt)3_80C_dioxane
     RDKit          2D

 10  9  0  0  0  0  0  0  0  0999 V2000
   -4.3182   -0.2699    0.0000 C   0  0  0  0  0  0  0  0  0  0  0  0
   -2.8875    0.1805    0.0000 C   0  0  0  0  0  0  0  0  0  0  0  0
   -1.7820   -0.8334    0.0000 O   0  0  0  0  0  0  0  0  0  0  0  0
   -0.3512   -0.3829    0.0000 P   0  0  0  0  0  0  0  0  0  0  0  0
    0.7543   -1.3968    0.0000 O   0  0  0  0  0  0  0  0  0  0  0  0
    2.1850   -0.9464    0.0000 C   0  0  0  0  0  0  0  0  0  0  0  0
    3.2905   -1.9603    0.0000 C   0  0  0  0  0  0  0  0  0  0  0  0
   -0.0259    1.0814    0.0000 O   0  0  0  0  0  0  0  0  0  0  0  0
    1.4049    1.5318    0.0000 C   0  0  0  0  0  0  0  0  0  0  0  0
    1.7302    2.9961    0.0000 C   0  0  0  0  0  0  0  0  0  0  0  0
  1  2  1  0
  2  3  1  0
  3  4  1  0
  4  5  1  0
  5  6  1  0
  6  7  1  0
  4  8  1  0
  8  9  1  0
  9 10  1  0
M  END
>  <linear_selectivity>  (711) 
31

>  <denticity>  (711) 
1

>  <ligand_class>  (711) 
phosphite

$$$$
P(OEt)3_80C_hexane
     RDKit          2D

 10  9  0  0  0  0  0  0  0  0999 V2000
   -4.3182   -0.2699    0.0000 C   0  0  0  0  0  0  0  0  0  0  0  0
   -2.8875    0.1805    0.0000 C   0  0  0  0  0  0  0  0  0  0  0  0
   -1.7820   -0.8334    0.0000 O   0  0  0  0  0  0  0  0  0  0  0  0
   -0.3512   -0.3829    0.0000 P   0  0  0  0  0  0  0  0  0  0  0  0
    0.7543   -1.3968    0.0000 O   0  0  0  0  0  0  0  0  0  0  0  0
    2.1850   -0.9464    0.0000 C   0  0  0  0  0  0  0  0  0  0  0  0
    3.2905   -1.9603    0.0000 C   0  0  0  0  0  0  0  0  0  0  0  0
   -0.0259    1.0814    0.0000 O   0  0  0  0  0  0  0  0  0  0  0  0
    1.4049    1.5318    0.0000 C   0  0  0  0  0  0  0  0  0  0  0  0
    1.7302    2.9961    0.0000 C   0  0  0  0  0  0  0  0  0  0  0  0
  1  2  1  0
  2  3  1  0
  3  4  1  0
  4  5  1  0
  5  6  1  0
  6  7  1  0
  4  8  1  0
  8  9  1  0
  9 10  1  0
M  END
>  <linear_selectivity>  (712) 
34

>  <denticity>  (712) 
1

>  <ligand_class>  (712) 
phosphite

$$$$
P(OEt)3_90C_toluene
     RDKit          2D

 10  9  0  0  0  0  0  0  0  0999 V2000
   -4.3182   -0.2699    0.0000 C   0  0  0  0  0  0  0  0  0  0  0  0
   -2.8875    0.1805    0.0000 C   0  0  0  0  0  0  0  0  0  0  0  0
   -1.7820   -0.8334    0.0000 O   0  0  0  0  0  0  0  0  0  0  0  0
   -0.3512   -0.3829    0.0000 P   0  0  0  0  0  0  0  0  0  0  0  0
    0.7543   -1.3968    0.0000 O   0  0  0  0  0  0  0  0  0  0  0  0
    2.1850   -0.9464    0.0000 C   0  0  0  0  0  0  0  0  0  0  0  0
    3.2905   -1.9603    0.0000 C   0  0  0  0  0  0  0  0  0  0  0  0
   -0.0259    1.0814    0.0000 O   0  0  0  0  0  0  0  0  0  0  0  0
    1.4049    1.5318    0.0000 C   0  0  0  0  0  0  0  0  0  0  0  0
    1.7302    2.9961    0.0000 C   0  0  0  0  0  0  0  0  0  0  0  0
  1  2  1  0
  2  3  1  0
  3  4  1  0
  4  5  1  0
  5  6  1  0
  6  7  1  0
  4  8  1  0
  8  9  1  0
  9 10  1  0
M  END
>  <linear_selectivity>  (713) 
27

>  <denticity>  (713) 
1

>  <ligand_class>  (713) 
phosphite

$$$$
P(OEt)3_90C_THF
     RDKit          2D

 10  9  0  0  0  0  0  0  0  0999 V2000
   -4.3182   -0.2699    0.0000 C   0  0  0  0  0  0  0  0  0  0  0  0
   -2.8875    0.1805    0.0000 C   0  0  0  0  0  0  0  0  0  0  0  0
   -1.7820   -0.8334    0.0000 O   0  0  0  0  0  0  0  0  0  0  0  0
   -0.3512   -0.3829    0.0000 P   0  0  0  0  0  0  0  0  0  0  0  0
    0.7543   -1.3968    0.0000 O   0  0  0  0  0  0  0  0  0  0  0  0
    2.1850   -0.9464    0.0000 C   0  0  0  0  0  0  0  0  0  0  0  0
    3.2905   -1.9603    0.0000 C   0  0  0  0  0  0  0  0  0  0  0  0
   -0.0259    1.0814    0.0000 O   0  0  0  0  0  0  0  0  0  0  0  0
    1.4049    1.5318    0.0000 C   0  0  0  0  0  0  0  0  0  0  0  0
    1.7302    2.9961    0.0000 C   0  0  0  0  0  0  0  0  0  0  0  0
  1  2  1  0
  2  3  1  0
  3  4  1  0
  4  5  1  0
  5  6  1  0
  6  7  1  0
  4  8  1  0
  8  9  1  0
  9 10  1  0
M  END
>  <linear_selectivity>  (714) 
27

>  <denticity>  (714) 
1

>  <ligand_class>  (714) 
phosphite

$$$$
P(OEt)3_90C_dioxane
     RDKit          2D

 10  9  0  0  0  0  0  0  0  0999 V2000
   -4.3182   -0.2699    0.0000 C   0  0  0  0  0  0  0  0  0  0  0  0
   -2.8875    0.1805    0.0000 C   0  0  0  0  0  0  0  0  0  0  0  0
   -1.7820   -0.8334    0.0000 O   0  0  0  0  0  0  0  0  0  0  0  0
   -0.3512   -0.3829    0.0000 P   0  0  0  0  0  0  0  0  0  0  0  0
    0.7543   -1.3968    0.0000 O   0  0  0  0  0  0  0  0  0  0  0  0
    2.1850   -0.9464    0.0000 C   0  0  0  0  0  0  0  0  0  0  0  0
    3.2905   -1.9603    0.0000 C   0  0  0  0  0  0  0  0  0  0  0  0
   -0.0259    1.0814    0.0000 O   0  0  0  0  0  0  0  0  0  0  0  0
    1.4049    1.5318    0.0000 C   0  0  0  0  0  0  0  0  0  0  0  0
    1.7302    2.9961    0.0000 C   0  0  0  0  0  0  0  0  0  0  0  0
  1  2  1  0
  2  3  1  0
  3  4  1  0
  4  5  1  0
  5  6  1  0
  6  7  1  0
  4  8  1  0
  8  9  1  0
  9 10  1  0
M  END
>  <linear_selectivity>  (715) 
31

>  <denticity>  (715) 
1

>  <ligand_class>  (715) 
phosphite

$$$$
P(OEt)3_90C_hexane
     RDKit          2D

 10  9  0  0  0  0  0  0  0  0999 V2000
   -4.3182   -0.2699    0.0000 C   0  0  0  0  0  0  0  0  0  0  0  0
   -2.8875    0.1805    0.0000 C   0  0  0  0  0  0  0  0  0  0  0  0
   -1.7820   -0.8334    0.0000 O   0  0  0  0  0  0  0  0  0  0  0  0
   -0.3512   -0.3829    0.0000 P   0  0  0  0  0  0  0  0  0  0  0  0
    0.7543   -1.3968    0.0000 O   0  0  0  0  0  0  0  0  0  0  0  0
    2.1850   -0.9464    0.0000 C   0  0  0  0  0  0  0  0  0  0  0  0
    3.2905   -1.9603    0.0000 C   0  0  0  0  0  0  0  0  0  0  0  0
   -0.0259    1.0814    0.0000 O   0  0  0  0  0  0  0  0  0  0  0  0
    1.4049    1.5318    0.0000 C   0  0  0  0  0  0  0  0  0  0  0  0
    1.7302    2.9961    0.0000 C   0  0  0  0  0  0  0  0  0  0  0  0
  1  2  1  0
  2  3  1  0
  3  4  1  0
  4  5  1  0
  5  6  1  0
  6  7  1  0
  4  8  1  0
  8  9  1  0
  9 10  1  0
M  END
>  <linear_selectivity>  (716) 
30

>  <denticity>  (716) 
1

>  <ligand_class>  (716) 
phosphite

$$$$
P(OEt)3_90C_benzene
     RDKit          2D

 10  9  0  0  0  0  0  0  0  0999 V2000
   -4.3182   -0.2699    0.0000 C   0  0  0  0  0  0  0  0  0  0  0  0
   -2.8875    0.1805    0.0000 C   0  0  0  0  0  0  0  0  0  0  0  0
   -1.7820   -0.8334    0.0000 O   0  0  0  0  0  0  0  0  0  0  0  0
   -0.3512   -0.3829    0.0000 P   0  0  0  0  0  0  0  0  0  0  0  0
    0.7543   -1.3968    0.0000 O   0  0  0  0  0  0  0  0  0  0  0  0
    2.1850   -0.9464    0.0000 C   0  0  0  0  0  0  0  0  0  0  0  0
    3.2905   -1.9603    0.0000 C   0  0  0  0  0  0  0  0  0  0  0  0
   -0.0259    1.0814    0.0000 O   0  0  0  0  0  0  0  0  0  0  0  0
    1.4049    1.5318    0.0000 C   0  0  0  0  0  0  0  0  0  0  0  0
    1.7302    2.9961    0.0000 C   0  0  0  0  0  0  0  0  0  0  0  0
  1  2  1  0
  2  3  1  0
  3  4  1  0
  4  5  1  0
  5  6  1  0
  6  7  1  0
  4  8  1  0
  8  9  1  0
  9 10  1  0
M  END
>  <linear_selectivity>  (717) 
28

>  <denticity>  (717) 
1

>  <ligand_class>  (717) 
phosphite

$$$$
P(OEt)3_90C_xylene
     RDKit          2D

 10  9  0  0  0  0  0  0  0  0999 V2000
   -4.3182   -0.2699    0.0000 C   0  0  0  0  0  0  0  0  0  0  0  0
   -2.8875    0.1805    0.0000 C   0  0  0  0  0  0  0  0  0  0  0  0
   -1.7820   -0.8334    0.0000 O   0  0  0  0  0  0  0  0  0  0  0  0
   -0.3512   -0.3829    0.0000 P   0  0  0  0  0  0  0  0  0  0  0  0
    0.7543   -1.3968    0.0000 O   0  0  0  0  0  0  0  0  0  0  0  0
    2.1850   -0.9464    0.0000 C   0  0  0  0  0  0  0  0  0  0  0  0
    3.2905   -1.9603    0.0000 C   0  0  0  0  0  0  0  0  0  0  0  0
   -0.0259    1.0814    0.0000 O   0  0  0  0  0  0  0  0  0  0  0  0
    1.4049    1.5318    0.0000 C   0  0  0  0  0  0  0  0  0  0  0  0
    1.7302    2.9961    0.0000 C   0  0  0  0  0  0  0  0  0  0  0  0
  1  2  1  0
  2  3  1  0
  3  4  1  0
  4  5  1  0
  5  6  1  0
  6  7  1  0
  4  8  1  0
  8  9  1  0
  9 10  1  0
M  END
>  <linear_selectivity>  (718) 
34

>  <denticity>  (718) 
1

>  <ligand_class>  (718) 
phosphite

$$$$
P(OEt)3_100C_toluene
     RDKit          2D

 10  9  0  0  0  0  0  0  0  0999 V2000
   -4.3182   -0.2699    0.0000 C   0  0  0  0  0  0  0  0  0  0  0  0
   -2.8875    0.1805    0.0000 C   0  0  0  0  0  0  0  0  0  0  0  0
   -1.7820   -0.8334    0.0000 O   0  0  0  0  0  0  0  0  0  0  0  0
   -0.3512   -0.3829    0.0000 P   0  0  0  0  0  0  0  0  0  0  0  0
    0.7543   -1.3968    0.0000 O   0  0  0  0  0  0  0  0  0  0  0  0
    2.1850   -0.9464    0.0000 C   0  0  0  0  0  0  0  0  0  0  0  0
    3.2905   -1.9603    0.0000 C   0  0  0  0  0  0  0  0  0  0  0  0
   -0.0259    1.0814    0.0000 O   0  0  0  0  0  0  0  0  0  0  0  0
    1.4049    1.5318    0.0000 C   0  0  0  0  0  0  0  0  0  0  0  0
    1.7302    2.9961    0.0000 C   0  0  0  0  0  0  0  0  0  0  0  0
  1  2  1  0
  2  3  1  0
  3  4  1  0
  4  5  1  0
  5  6  1  0
  6  7  1  0
  4  8  1  0
  8  9  1  0
  9 10  1  0
M  END
>  <linear_selectivity>  (719) 
31

>  <denticity>  (719) 
1

>  <ligand_class>  (719) 
phosphite

$$$$
P(OEt)3_100C_THF
     RDKit          2D

 10  9  0  0  0  0  0  0  0  0999 V2000
   -4.3182   -0.2699    0.0000 C   0  0  0  0  0  0  0  0  0  0  0  0
   -2.8875    0.1805    0.0000 C   0  0  0  0  0  0  0  0  0  0  0  0
   -1.7820   -0.8334    0.0000 O   0  0  0  0  0  0  0  0  0  0  0  0
   -0.3512   -0.3829    0.0000 P   0  0  0  0  0  0  0  0  0  0  0  0
    0.7543   -1.3968    0.0000 O   0  0  0  0  0  0  0  0  0  0  0  0
    2.1850   -0.9464    0.0000 C   0  0  0  0  0  0  0  0  0  0  0  0
    3.2905   -1.9603    0.0000 C   0  0  0  0  0  0  0  0  0  0  0  0
   -0.0259    1.0814    0.0000 O   0  0  0  0  0  0  0  0  0  0  0  0
    1.4049    1.5318    0.0000 C   0  0  0  0  0  0  0  0  0  0  0  0
    1.7302    2.9961    0.0000 C   0  0  0  0  0  0  0  0  0  0  0  0
  1  2  1  0
  2  3  1  0
  3  4  1  0
  4  5  1  0
  5  6  1  0
  6  7  1  0
  4  8  1  0
  8  9  1  0
  9 10  1  0
M  END
>  <linear_selectivity>  (720) 
27

>  <denticity>  (720) 
1

>  <ligand_class>  (720) 
phosphite

$$$$
P(OEt)3_100C_dioxane
     RDKit          2D

 10  9  0  0  0  0  0  0  0  0999 V2000
   -4.3182   -0.2699    0.0000 C   0  0  0  0  0  0  0  0  0  0  0  0
   -2.8875    0.1805    0.0000 C   0  0  0  0  0  0  0  0  0  0  0  0
   -1.7820   -0.8334    0.0000 O   0  0  0  0  0  0  0  0  0  0  0  0
   -0.3512   -0.3829    0.0000 P   0  0  0  0  0  0  0  0  0  0  0  0
    0.7543   -1.3968    0.0000 O   0  0  0  0  0  0  0  0  0  0  0  0
    2.1850   -0.9464    0.0000 C   0  0  0  0  0  0  0  0  0  0  0  0
    3.2905   -1.9603    0.0000 C   0  0  0  0  0  0  0  0  0  0  0  0
   -0.0259    1.0814    0.0000 O   0  0  0  0  0  0  0  0  0  0  0  0
    1.4049    1.5318    0.0000 C   0  0  0  0  0  0  0  0  0  0  0  0
    1.7302    2.9961    0.0000 C   0  0  0  0  0  0  0  0  0  0  0  0
  1  2  1  0
  2  3  1  0
  3  4  1  0
  4  5  1  0
  5  6  1  0
  6  7  1  0
  4  8  1  0
  8  9  1  0
  9 10  1  0
M  END
>  <linear_selectivity>  (721) 
30

>  <denticity>  (721) 
1

>  <ligand_class>  (721) 
phosphite

$$$$
P(OEt)3_100C_hexane
     RDKit          2D

 10  9  0  0  0  0  0  0  0  0999 V2000
   -4.3182   -0.2699    0.0000 C   0  0  0  0  0  0  0  0  0  0  0  0
   -2.8875    0.1805    0.0000 C   0  0  0  0  0  0  0  0  0  0  0  0
   -1.7820   -0.8334    0.0000 O   0  0  0  0  0  0  0  0  0  0  0  0
   -0.3512   -0.3829    0.0000 P   0  0  0  0  0  0  0  0  0  0  0  0
    0.7543   -1.3968    0.0000 O   0  0  0  0  0  0  0  0  0  0  0  0
    2.1850   -0.9464    0.0000 C   0  0  0  0  0  0  0  0  0  0  0  0
    3.2905   -1.9603    0.0000 C   0  0  0  0  0  0  0  0  0  0  0  0
   -0.0259    1.0814    0.0000 O   0  0  0  0  0  0  0  0  0  0  0  0
    1.4049    1.5318    0.0000 C   0  0  0  0  0  0  0  0  0  0  0  0
    1.7302    2.9961    0.0000 C   0  0  0  0  0  0  0  0  0  0  0  0
  1  2  1  0
  2  3  1  0
  3  4  1  0
  4  5  1  0
  5  6  1  0
  6  7  1  0
  4  8  1  0
  8  9  1  0
  9 10  1  0
M  END
>  <linear_selectivity>  (722) 
29

>  <denticity>  (722) 
1

>  <ligand_class>  (722) 
phosphite

$$$$
P(OEt)3_100C_benzene
     RDKit          2D

 10  9  0  0  0  0  0  0  0  0999 V2000
   -4.3182   -0.2699    0.0000 C   0  0  0  0  0  0  0  0  0  0  0  0
   -2.8875    0.1805    0.0000 C   0  0  0  0  0  0  0  0  0  0  0  0
   -1.7820   -0.8334    0.0000 O   0  0  0  0  0  0  0  0  0  0  0  0
   -0.3512   -0.3829    0.0000 P   0  0  0  0  0  0  0  0  0  0  0  0
    0.7543   -1.3968    0.0000 O   0  0  0  0  0  0  0  0  0  0  0  0
    2.1850   -0.9464    0.0000 C   0  0  0  0  0  0  0  0  0  0  0  0
    3.2905   -1.9603    0.0000 C   0  0  0  0  0  0  0  0  0  0  0  0
   -0.0259    1.0814    0.0000 O   0  0  0  0  0  0  0  0  0  0  0  0
    1.4049    1.5318    0.0000 C   0  0  0  0  0  0  0  0  0  0  0  0
    1.7302    2.9961    0.0000 C   0  0  0  0  0  0  0  0  0  0  0  0
  1  2  1  0
  2  3  1  0
  3  4  1  0
  4  5  1  0
  5  6  1  0
  6  7  1  0
  4  8  1  0
  8  9  1  0
  9 10  1  0
M  END
>  <linear_selectivity>  (723) 
32

>  <denticity>  (723) 
1

>  <ligand_class>  (723) 
phosphite

$$$$
P(OEt)3_100C_xylene
     RDKit          2D

 10  9  0  0  0  0  0  0  0  0999 V2000
   -4.3182   -0.2699    0.0000 C   0  0  0  0  0  0  0  0  0  0  0  0
   -2.8875    0.1805    0.0000 C   0  0  0  0  0  0  0  0  0  0  0  0
   -1.7820   -0.8334    0.0000 O   0  0  0  0  0  0  0  0  0  0  0  0
   -0.3512   -0.3829    0.0000 P   0  0  0  0  0  0  0  0  0  0  0  0
    0.7543   -1.3968    0.0000 O   0  0  0  0  0  0  0  0  0  0  0  0
    2.1850   -0.9464    0.0000 C   0  0  0  0  0  0  0  0  0  0  0  0
    3.2905   -1.9603    0.0000 C   0  0  0  0  0  0  0  0  0  0  0  0
   -0.0259    1.0814    0.0000 O   0  0  0  0  0  0  0  0  0  0  0  0
    1.4049    1.5318    0.0000 C   0  0  0  0  0  0  0  0  0  0  0  0
    1.7302    2.9961    0.0000 C   0  0  0  0  0  0  0  0  0  0  0  0
  1  2  1  0
  2  3  1  0
  3  4  1  0
  4  5  1  0
  5  6  1  0
  6  7  1  0
  4  8  1  0
  8  9  1  0
  9 10  1  0
M  END
>  <linear_selectivity>  (724) 
30

>  <denticity>  (724) 
1

>  <ligand_class>  (724) 
phosphite

$$$$
P(OEt)3_110C_toluene
     RDKit          2D

 10  9  0  0  0  0  0  0  0  0999 V2000
   -4.3182   -0.2699    0.0000 C   0  0  0  0  0  0  0  0  0  0  0  0
   -2.8875    0.1805    0.0000 C   0  0  0  0  0  0  0  0  0  0  0  0
   -1.7820   -0.8334    0.0000 O   0  0  0  0  0  0  0  0  0  0  0  0
   -0.3512   -0.3829    0.0000 P   0  0  0  0  0  0  0  0  0  0  0  0
    0.7543   -1.3968    0.0000 O   0  0  0  0  0  0  0  0  0  0  0  0
    2.1850   -0.9464    0.0000 C   0  0  0  0  0  0  0  0  0  0  0  0
    3.2905   -1.9603    0.0000 C   0  0  0  0  0  0  0  0  0  0  0  0
   -0.0259    1.0814    0.0000 O   0  0  0  0  0  0  0  0  0  0  0  0
    1.4049    1.5318    0.0000 C   0  0  0  0  0  0  0  0  0  0  0  0
    1.7302    2.9961    0.0000 C   0  0  0  0  0  0  0  0  0  0  0  0
  1  2  1  0
  2  3  1  0
  3  4  1  0
  4  5  1  0
  5  6  1  0
  6  7  1  0
  4  8  1  0
  8  9  1  0
  9 10  1  0
M  END
>  <linear_selectivity>  (725) 
25

>  <denticity>  (725) 
1

>  <ligand_class>  (725) 
phosphite

$$$$
P(OEt)3_110C_THF
     RDKit          2D

 10  9  0  0  0  0  0  0  0  0999 V2000
   -4.3182   -0.2699    0.0000 C   0  0  0  0  0  0  0  0  0  0  0  0
   -2.8875    0.1805    0.0000 C   0  0  0  0  0  0  0  0  0  0  0  0
   -1.7820   -0.8334    0.0000 O   0  0  0  0  0  0  0  0  0  0  0  0
   -0.3512   -0.3829    0.0000 P   0  0  0  0  0  0  0  0  0  0  0  0
    0.7543   -1.3968    0.0000 O   0  0  0  0  0  0  0  0  0  0  0  0
    2.1850   -0.9464    0.0000 C   0  0  0  0  0  0  0  0  0  0  0  0
    3.2905   -1.9603    0.0000 C   0  0  0  0  0  0  0  0  0  0  0  0
   -0.0259    1.0814    0.0000 O   0  0  0  0  0  0  0  0  0  0  0  0
    1.4049    1.5318    0.0000 C   0  0  0  0  0  0  0  0  0  0  0  0
    1.7302    2.9961    0.0000 C   0  0  0  0  0  0  0  0  0  0  0  0
  1  2  1  0
  2  3  1  0
  3  4  1  0
  4  5  1  0
  5  6  1  0
  6  7  1  0
  4  8  1  0
  8  9  1  0
  9 10  1  0
M  END
>  <linear_selectivity>  (726) 
29

>  <denticity>  (726) 
1

>  <ligand_class>  (726) 
phosphite

$$$$
P(OEt)3_110C_dioxane
     RDKit          2D

 10  9  0  0  0  0  0  0  0  0999 V2000
   -4.3182   -0.2699    0.0000 C   0  0  0  0  0  0  0  0  0  0  0  0
   -2.8875    0.1805    0.0000 C   0  0  0  0  0  0  0  0  0  0  0  0
   -1.7820   -0.8334    0.0000 O   0  0  0  0  0  0  0  0  0  0  0  0
   -0.3512   -0.3829    0.0000 P   0  0  0  0  0  0  0  0  0  0  0  0
    0.7543   -1.3968    0.0000 O   0  0  0  0  0  0  0  0  0  0  0  0
    2.1850   -0.9464    0.0000 C   0  0  0  0  0  0  0  0  0  0  0  0
    3.2905   -1.9603    0.0000 C   0  0  0  0  0  0  0  0  0  0  0  0
   -0.0259    1.0814    0.0000 O   0  0  0  0  0  0  0  0  0  0  0  0
    1.4049    1.5318    0.0000 C   0  0  0  0  0  0  0  0  0  0  0  0
    1.7302    2.9961    0.0000 C   0  0  0  0  0  0  0  0  0  0  0  0
  1  2  1  0
  2  3  1  0
  3  4  1  0
  4  5  1  0
  5  6  1  0
  6  7  1  0
  4  8  1  0
  8  9  1  0
  9 10  1  0
M  END
>  <linear_selectivity>  (727) 
26

>  <denticity>  (727) 
1

>  <ligand_class>  (727) 
phosphite

$$$$
P(OEt)3_110C_hexane
     RDKit          2D

 10  9  0  0  0  0  0  0  0  0999 V2000
   -4.3182   -0.2699    0.0000 C   0  0  0  0  0  0  0  0  0  0  0  0
   -2.8875    0.1805    0.0000 C   0  0  0  0  0  0  0  0  0  0  0  0
   -1.7820   -0.8334    0.0000 O   0  0  0  0  0  0  0  0  0  0  0  0
   -0.3512   -0.3829    0.0000 P   0  0  0  0  0  0  0  0  0  0  0  0
    0.7543   -1.3968    0.0000 O   0  0  0  0  0  0  0  0  0  0  0  0
    2.1850   -0.9464    0.0000 C   0  0  0  0  0  0  0  0  0  0  0  0
    3.2905   -1.9603    0.0000 C   0  0  0  0  0  0  0  0  0  0  0  0
   -0.0259    1.0814    0.0000 O   0  0  0  0  0  0  0  0  0  0  0  0
    1.4049    1.5318    0.0000 C   0  0  0  0  0  0  0  0  0  0  0  0
    1.7302    2.9961    0.0000 C   0  0  0  0  0  0  0  0  0  0  0  0
  1  2  1  0
  2  3  1  0
  3  4  1  0
  4  5  1  0
  5  6  1  0
  6  7  1  0
  4  8  1  0
  8  9  1  0
  9 10  1  0
M  END
>  <linear_selectivity>  (728) 
31

>  <denticity>  (728) 
1

>  <ligand_class>  (728) 
phosphite

$$$$
P(OEt)3_110C_benzene
     RDKit          2D

 10  9  0  0  0  0  0  0  0  0999 V2000
   -4.3182   -0.2699    0.0000 C   0  0  0  0  0  0  0  0  0  0  0  0
   -2.8875    0.1805    0.0000 C   0  0  0  0  0  0  0  0  0  0  0  0
   -1.7820   -0.8334    0.0000 O   0  0  0  0  0  0  0  0  0  0  0  0
   -0.3512   -0.3829    0.0000 P   0  0  0  0  0  0  0  0  0  0  0  0
    0.7543   -1.3968    0.0000 O   0  0  0  0  0  0  0  0  0  0  0  0
    2.1850   -0.9464    0.0000 C   0  0  0  0  0  0  0  0  0  0  0  0
    3.2905   -1.9603    0.0000 C   0  0  0  0  0  0  0  0  0  0  0  0
   -0.0259    1.0814    0.0000 O   0  0  0  0  0  0  0  0  0  0  0  0
    1.4049    1.5318    0.0000 C   0  0  0  0  0  0  0  0  0  0  0  0
    1.7302    2.9961    0.0000 C   0  0  0  0  0  0  0  0  0  0  0  0
  1  2  1  0
  2  3  1  0
  3  4  1  0
  4  5  1  0
  5  6  1  0
  6  7  1  0
  4  8  1  0
  8  9  1  0
  9 10  1  0
M  END
>  <linear_selectivity>  (729) 
25

>  <denticity>  (729) 
1

>  <ligand_class>  (729) 
phosphite

$$$$
P(OEt)3_110C_xylene
     RDKit          2D

 10  9  0  0  0  0  0  0  0  0999 V2000
   -4.3182   -0.2699    0.0000 C   0  0  0  0  0  0  0  0  0  0  0  0
   -2.8875    0.1805    0.0000 C   0  0  0  0  0  0  0  0  0  0  0  0
   -1.7820   -0.8334    0.0000 O   0  0  0  0  0  0  0  0  0  0  0  0
   -0.3512   -0.3829    0.0000 P   0  0  0  0  0  0  0  0  0  0  0  0
    0.7543   -1.3968    0.0000 O   0  0  0  0  0  0  0  0  0  0  0  0
    2.1850   -0.9464    0.0000 C   0  0  0  0  0  0  0  0  0  0  0  0
    3.2905   -1.9603    0.0000 C   0  0  0  0  0  0  0  0  0  0  0  0
   -0.0259    1.0814    0.0000 O   0  0  0  0  0  0  0  0  0  0  0  0
    1.4049    1.5318    0.0000 C   0  0  0  0  0  0  0  0  0  0  0  0
    1.7302    2.9961    0.0000 C   0  0  0  0  0  0  0  0  0  0  0  0
  1  2  1  0
  2  3  1  0
  3  4  1  0
  4  5  1  0
  5  6  1  0
  6  7  1  0
  4  8  1  0
  8  9  1  0
  9 10  1  0
M  END
>  <linear_selectivity>  (730) 
25

>  <denticity>  (730) 
1

>  <ligand_class>  (730) 
phosphite

$$$$
P(OEt)3_120C_toluene
     RDKit          2D

 10  9  0  0  0  0  0  0  0  0999 V2000
   -4.3182   -0.2699    0.0000 C   0  0  0  0  0  0  0  0  0  0  0  0
   -2.8875    0.1805    0.0000 C   0  0  0  0  0  0  0  0  0  0  0  0
   -1.7820   -0.8334    0.0000 O   0  0  0  0  0  0  0  0  0  0  0  0
   -0.3512   -0.3829    0.0000 P   0  0  0  0  0  0  0  0  0  0  0  0
    0.7543   -1.3968    0.0000 O   0  0  0  0  0  0  0  0  0  0  0  0
    2.1850   -0.9464    0.0000 C   0  0  0  0  0  0  0  0  0  0  0  0
    3.2905   -1.9603    0.0000 C   0  0  0  0  0  0  0  0  0  0  0  0
   -0.0259    1.0814    0.0000 O   0  0  0  0  0  0  0  0  0  0  0  0
    1.4049    1.5318    0.0000 C   0  0  0  0  0  0  0  0  0  0  0  0
    1.7302    2.9961    0.0000 C   0  0  0  0  0  0  0  0  0  0  0  0
  1  2  1  0
  2  3  1  0
  3  4  1  0
  4  5  1  0
  5  6  1  0
  6  7  1  0
  4  8  1  0
  8  9  1  0
  9 10  1  0
M  END
>  <linear_selectivity>  (731) 
24

>  <denticity>  (731) 
1

>  <ligand_class>  (731) 
phosphite

$$$$
P(OEt)3_120C_THF
     RDKit          2D

 10  9  0  0  0  0  0  0  0  0999 V2000
   -4.3182   -0.2699    0.0000 C   0  0  0  0  0  0  0  0  0  0  0  0
   -2.8875    0.1805    0.0000 C   0  0  0  0  0  0  0  0  0  0  0  0
   -1.7820   -0.8334    0.0000 O   0  0  0  0  0  0  0  0  0  0  0  0
   -0.3512   -0.3829    0.0000 P   0  0  0  0  0  0  0  0  0  0  0  0
    0.7543   -1.3968    0.0000 O   0  0  0  0  0  0  0  0  0  0  0  0
    2.1850   -0.9464    0.0000 C   0  0  0  0  0  0  0  0  0  0  0  0
    3.2905   -1.9603    0.0000 C   0  0  0  0  0  0  0  0  0  0  0  0
   -0.0259    1.0814    0.0000 O   0  0  0  0  0  0  0  0  0  0  0  0
    1.4049    1.5318    0.0000 C   0  0  0  0  0  0  0  0  0  0  0  0
    1.7302    2.9961    0.0000 C   0  0  0  0  0  0  0  0  0  0  0  0
  1  2  1  0
  2  3  1  0
  3  4  1  0
  4  5  1  0
  5  6  1  0
  6  7  1  0
  4  8  1  0
  8  9  1  0
  9 10  1  0
M  END
>  <linear_selectivity>  (732) 
24

>  <denticity>  (732) 
1

>  <ligand_class>  (732) 
phosphite

$$$$
P(OEt)3_120C_dioxane
     RDKit          2D

 10  9  0  0  0  0  0  0  0  0999 V2000
   -4.3182   -0.2699    0.0000 C   0  0  0  0  0  0  0  0  0  0  0  0
   -2.8875    0.1805    0.0000 C   0  0  0  0  0  0  0  0  0  0  0  0
   -1.7820   -0.8334    0.0000 O   0  0  0  0  0  0  0  0  0  0  0  0
   -0.3512   -0.3829    0.0000 P   0  0  0  0  0  0  0  0  0  0  0  0
    0.7543   -1.3968    0.0000 O   0  0  0  0  0  0  0  0  0  0  0  0
    2.1850   -0.9464    0.0000 C   0  0  0  0  0  0  0  0  0  0  0  0
    3.2905   -1.9603    0.0000 C   0  0  0  0  0  0  0  0  0  0  0  0
   -0.0259    1.0814    0.0000 O   0  0  0  0  0  0  0  0  0  0  0  0
    1.4049    1.5318    0.0000 C   0  0  0  0  0  0  0  0  0  0  0  0
    1.7302    2.9961    0.0000 C   0  0  0  0  0  0  0  0  0  0  0  0
  1  2  1  0
  2  3  1  0
  3  4  1  0
  4  5  1  0
  5  6  1  0
  6  7  1  0
  4  8  1  0
  8  9  1  0
  9 10  1  0
M  END
>  <linear_selectivity>  (733) 
25

>  <denticity>  (733) 
1

>  <ligand_class>  (733) 
phosphite

$$$$
P(OEt)3_120C_benzene
     RDKit          2D

 10  9  0  0  0  0  0  0  0  0999 V2000
   -4.3182   -0.2699    0.0000 C   0  0  0  0  0  0  0  0  0  0  0  0
   -2.8875    0.1805    0.0000 C   0  0  0  0  0  0  0  0  0  0  0  0
   -1.7820   -0.8334    0.0000 O   0  0  0  0  0  0  0  0  0  0  0  0
   -0.3512   -0.3829    0.0000 P   0  0  0  0  0  0  0  0  0  0  0  0
    0.7543   -1.3968    0.0000 O   0  0  0  0  0  0  0  0  0  0  0  0
    2.1850   -0.9464    0.0000 C   0  0  0  0  0  0  0  0  0  0  0  0
    3.2905   -1.9603    0.0000 C   0  0  0  0  0  0  0  0  0  0  0  0
   -0.0259    1.0814    0.0000 O   0  0  0  0  0  0  0  0  0  0  0  0
    1.4049    1.5318    0.0000 C   0  0  0  0  0  0  0  0  0  0  0  0
    1.7302    2.9961    0.0000 C   0  0  0  0  0  0  0  0  0  0  0  0
  1  2  1  0
  2  3  1  0
  3  4  1  0
  4  5  1  0
  5  6  1  0
  6  7  1  0
  4  8  1  0
  8  9  1  0
  9 10  1  0
M  END
>  <linear_selectivity>  (734) 
24

>  <denticity>  (734) 
1

>  <ligand_class>  (734) 
phosphite

$$$$
P(OEt)3_120C_xylene
     RDKit          2D

 10  9  0  0  0  0  0  0  0  0999 V2000
   -4.3182   -0.2699    0.0000 C   0  0  0  0  0  0  0  0  0  0  0  0
   -2.8875    0.1805    0.0000 C   0  0  0  0  0  0  0  0  0  0  0  0
   -1.7820   -0.8334    0.0000 O   0  0  0  0  0  0  0  0  0  0  0  0
   -0.3512   -0.3829    0.0000 P   0  0  0  0  0  0  0  0  0  0  0  0
    0.7543   -1.3968    0.0000 O   0  0  0  0  0  0  0  0  0  0  0  0
    2.1850   -0.9464    0.0000 C   0  0  0  0  0  0  0  0  0  0  0  0
    3.2905   -1.9603    0.0000 C   0  0  0  0  0  0  0  0  0  0  0  0
   -0.0259    1.0814    0.0000 O   0  0  0  0  0  0  0  0  0  0  0  0
    1.4049    1.5318    0.0000 C   0  0  0  0  0  0  0  0  0  0  0  0
    1.7302    2.9961    0.0000 C   0  0  0  0  0  0  0  0  0  0  0  0
  1  2  1  0
  2  3  1  0
  3  4  1  0
  4  5  1  0
  5  6  1  0
  6  7  1  0
  4  8  1  0
  8  9  1  0
  9 10  1  0
M  END
>  <linear_selectivity>  (735) 
29

>  <denticity>  (735) 
1

>  <ligand_class>  (735) 
phosphite

$$$$
P(OEt)3_130C_toluene
     RDKit          2D

 10  9  0  0  0  0  0  0  0  0999 V2000
   -4.3182   -0.2699    0.0000 C   0  0  0  0  0  0  0  0  0  0  0  0
   -2.8875    0.1805    0.0000 C   0  0  0  0  0  0  0  0  0  0  0  0
   -1.7820   -0.8334    0.0000 O   0  0  0  0  0  0  0  0  0  0  0  0
   -0.3512   -0.3829    0.0000 P   0  0  0  0  0  0  0  0  0  0  0  0
    0.7543   -1.3968    0.0000 O   0  0  0  0  0  0  0  0  0  0  0  0
    2.1850   -0.9464    0.0000 C   0  0  0  0  0  0  0  0  0  0  0  0
    3.2905   -1.9603    0.0000 C   0  0  0  0  0  0  0  0  0  0  0  0
   -0.0259    1.0814    0.0000 O   0  0  0  0  0  0  0  0  0  0  0  0
    1.4049    1.5318    0.0000 C   0  0  0  0  0  0  0  0  0  0  0  0
    1.7302    2.9961    0.0000 C   0  0  0  0  0  0  0  0  0  0  0  0
  1  2  1  0
  2  3  1  0
  3  4  1  0
  4  5  1  0
  5  6  1  0
  6  7  1  0
  4  8  1  0
  8  9  1  0
  9 10  1  0
M  END
>  <linear_selectivity>  (736) 
23

>  <denticity>  (736) 
1

>  <ligand_class>  (736) 
phosphite

$$$$
P(OEt)3_130C_THF
     RDKit          2D

 10  9  0  0  0  0  0  0  0  0999 V2000
   -4.3182   -0.2699    0.0000 C   0  0  0  0  0  0  0  0  0  0  0  0
   -2.8875    0.1805    0.0000 C   0  0  0  0  0  0  0  0  0  0  0  0
   -1.7820   -0.8334    0.0000 O   0  0  0  0  0  0  0  0  0  0  0  0
   -0.3512   -0.3829    0.0000 P   0  0  0  0  0  0  0  0  0  0  0  0
    0.7543   -1.3968    0.0000 O   0  0  0  0  0  0  0  0  0  0  0  0
    2.1850   -0.9464    0.0000 C   0  0  0  0  0  0  0  0  0  0  0  0
    3.2905   -1.9603    0.0000 C   0  0  0  0  0  0  0  0  0  0  0  0
   -0.0259    1.0814    0.0000 O   0  0  0  0  0  0  0  0  0  0  0  0
    1.4049    1.5318    0.0000 C   0  0  0  0  0  0  0  0  0  0  0  0
    1.7302    2.9961    0.0000 C   0  0  0  0  0  0  0  0  0  0  0  0
  1  2  1  0
  2  3  1  0
  3  4  1  0
  4  5  1  0
  5  6  1  0
  6  7  1  0
  4  8  1  0
  8  9  1  0
  9 10  1  0
M  END
>  <linear_selectivity>  (737) 
22

>  <denticity>  (737) 
1

>  <ligand_class>  (737) 
phosphite

$$$$
P(OEt)3_130C_dioxane
     RDKit          2D

 10  9  0  0  0  0  0  0  0  0999 V2000
   -4.3182   -0.2699    0.0000 C   0  0  0  0  0  0  0  0  0  0  0  0
   -2.8875    0.1805    0.0000 C   0  0  0  0  0  0  0  0  0  0  0  0
   -1.7820   -0.8334    0.0000 O   0  0  0  0  0  0  0  0  0  0  0  0
   -0.3512   -0.3829    0.0000 P   0  0  0  0  0  0  0  0  0  0  0  0
    0.7543   -1.3968    0.0000 O   0  0  0  0  0  0  0  0  0  0  0  0
    2.1850   -0.9464    0.0000 C   0  0  0  0  0  0  0  0  0  0  0  0
    3.2905   -1.9603    0.0000 C   0  0  0  0  0  0  0  0  0  0  0  0
   -0.0259    1.0814    0.0000 O   0  0  0  0  0  0  0  0  0  0  0  0
    1.4049    1.5318    0.0000 C   0  0  0  0  0  0  0  0  0  0  0  0
    1.7302    2.9961    0.0000 C   0  0  0  0  0  0  0  0  0  0  0  0
  1  2  1  0
  2  3  1  0
  3  4  1  0
  4  5  1  0
  5  6  1  0
  6  7  1  0
  4  8  1  0
  8  9  1  0
  9 10  1  0
M  END
>  <linear_selectivity>  (738) 
28

>  <denticity>  (738) 
1

>  <ligand_class>  (738) 
phosphite

$$$$
P(OEt)3_130C_hexane
     RDKit          2D

 10  9  0  0  0  0  0  0  0  0999 V2000
   -4.3182   -0.2699    0.0000 C   0  0  0  0  0  0  0  0  0  0  0  0
   -2.8875    0.1805    0.0000 C   0  0  0  0  0  0  0  0  0  0  0  0
   -1.7820   -0.8334    0.0000 O   0  0  0  0  0  0  0  0  0  0  0  0
   -0.3512   -0.3829    0.0000 P   0  0  0  0  0  0  0  0  0  0  0  0
    0.7543   -1.3968    0.0000 O   0  0  0  0  0  0  0  0  0  0  0  0
    2.1850   -0.9464    0.0000 C   0  0  0  0  0  0  0  0  0  0  0  0
    3.2905   -1.9603    0.0000 C   0  0  0  0  0  0  0  0  0  0  0  0
   -0.0259    1.0814    0.0000 O   0  0  0  0  0  0  0  0  0  0  0  0
    1.4049    1.5318    0.0000 C   0  0  0  0  0  0  0  0  0  0  0  0
    1.7302    2.9961    0.0000 C   0  0  0  0  0  0  0  0  0  0  0  0
  1  2  1  0
  2  3  1  0
  3  4  1  0
  4  5  1  0
  5  6  1  0
  6  7  1  0
  4  8  1  0
  8  9  1  0
  9 10  1  0
M  END
>  <linear_selectivity>  (739) 
27

>  <denticity>  (739) 
1

>  <ligand_class>  (739) 
phosphite

$$$$
P(OEt)3_130C_xylene
     RDKit          2D

 10  9  0  0  0  0  0  0  0  0999 V2000
   -4.3182   -0.2699    0.0000 C   0  0  0  0  0  0  0  0  0  0  0  0
   -2.8875    0.1805    0.0000 C   0  0  0  0  0  0  0  0  0  0  0  0
   -1.7820   -0.8334    0.0000 O   0  0  0  0  0  0  0  0  0  0  0  0
   -0.3512   -0.3829    0.0000 P   0  0  0  0  0  0  0  0  0  0  0  0
    0.7543   -1.3968    0.0000 O   0  0  0  0  0  0  0  0  0  0  0  0
    2.1850   -0.9464    0.0000 C   0  0  0  0  0  0  0  0  0  0  0  0
    3.2905   -1.9603    0.0000 C   0  0  0  0  0  0  0  0  0  0  0  0
   -0.0259    1.0814    0.0000 O   0  0  0  0  0  0  0  0  0  0  0  0
    1.4049    1.5318    0.0000 C   0  0  0  0  0  0  0  0  0  0  0  0
    1.7302    2.9961    0.0000 C   0  0  0  0  0  0  0  0  0  0  0  0
  1  2  1  0
  2  3  1  0
  3  4  1  0
  4  5  1  0
  5  6  1  0
  6  7  1  0
  4  8  1  0
  8  9  1  0
  9 10  1  0
M  END
>  <linear_selectivity>  (740) 
27

>  <denticity>  (740) 
1

>  <ligand_class>  (740) 
phosphite

$$$$
P(OiPr)3
     RDKit          2D

 13 12  0  0  0  0  0  0  0  0999 V2000
   -2.5981   -3.0000    0.0000 C   0  0  0  0  0  0  0  0  0  0  0  0
   -1.2990   -2.2500    0.0000 C   0  0  0  0  0  0  0  0  0  0  0  0
    0.0000   -3.0000    0.0000 C   0  0  0  0  0  0  0  0  0  0  0  0
   -1.2990   -0.7500    0.0000 O   0  0  0  0  0  0  0  0  0  0  0  0
    0.0000    0.0000    0.0000 P   0  0  0  0  0  0  0  0  0  0  0  0
    0.0000    1.5000    0.0000 O   0  0  0  0  0  0  0  0  0  0  0  0
   -1.2990    2.2500    0.0000 C   0  0  0  0  0  0  0  0  0  0  0  0
   -1.2990    3.7500    0.0000 C   0  0  0  0  0  0  0  0  0  0  0  0
   -2.5981    1.5000    0.0000 C   0  0  0  0  0  0  0  0  0  0  0  0
    1.2990   -0.7500    0.0000 O   0  0  0  0  0  0  0  0  0  0  0  0
    2.5981    0.0000    0.0000 C   0  0  0  0  0  0  0  0  0  0  0  0
    2.5981    1.5000    0.0000 C   0  0  0  0  0  0  0  0  0  0  0  0
    3.8971   -0.7500    0.0000 C   0  0  0  0  0  0  0  0  0  0  0  0
  1  2  1  0
  2  3  1  0
  2  4  1  0
  4  5  1  0
  5  6  1  0
  6  7  1  0
  7  8  1  0
  7  9  1  0
  5 10  1  0
 10 11  1  0
 11 12  1  0
 11 13  1  0
M  END
>  <linear_selectivity>  (741) 
32

>  <denticity>  (741) 
1

>  <ligand_class>  (741) 
phosphite

$$$$
P(OiPr)3_70C_toluene
     RDKit          2D

 13 12  0  0  0  0  0  0  0  0999 V2000
   -2.5981   -3.0000    0.0000 C   0  0  0  0  0  0  0  0  0  0  0  0
   -1.2990   -2.2500    0.0000 C   0  0  0  0  0  0  0  0  0  0  0  0
    0.0000   -3.0000    0.0000 C   0  0  0  0  0  0  0  0  0  0  0  0
   -1.2990   -0.7500    0.0000 O   0  0  0  0  0  0  0  0  0  0  0  0
    0.0000    0.0000    0.0000 P   0  0  0  0  0  0  0  0  0  0  0  0
    0.0000    1.5000    0.0000 O   0  0  0  0  0  0  0  0  0  0  0  0
   -1.2990    2.2500    0.0000 C   0  0  0  0  0  0  0  0  0  0  0  0
   -1.2990    3.7500    0.0000 C   0  0  0  0  0  0  0  0  0  0  0  0
   -2.5981    1.5000    0.0000 C   0  0  0  0  0  0  0  0  0  0  0  0
    1.2990   -0.7500    0.0000 O   0  0  0  0  0  0  0  0  0  0  0  0
    2.5981    0.0000    0.0000 C   0  0  0  0  0  0  0  0  0  0  0  0
    2.5981    1.5000    0.0000 C   0  0  0  0  0  0  0  0  0  0  0  0
    3.8971   -0.7500    0.0000 C   0  0  0  0  0  0  0  0  0  0  0  0
  1  2  1  0
  2  3  1  0
  2  4  1  0
  4  5  1  0
  5  6  1  0
  6  7  1  0
  7  8  1  0
  7  9  1  0
  5 10  1  0
 10 11  1  0
 11 12  1  0
 11 13  1  0
M  END
>  <linear_selectivity>  (742) 
32

>  <denticity>  (742) 
1

>  <ligand_class>  (742) 
phosphite

$$$$
P(OiPr)3_70C_THF
     RDKit          2D

 13 12  0  0  0  0  0  0  0  0999 V2000
   -2.5981   -3.0000    0.0000 C   0  0  0  0  0  0  0  0  0  0  0  0
   -1.2990   -2.2500    0.0000 C   0  0  0  0  0  0  0  0  0  0  0  0
    0.0000   -3.0000    0.0000 C   0  0  0  0  0  0  0  0  0  0  0  0
   -1.2990   -0.7500    0.0000 O   0  0  0  0  0  0  0  0  0  0  0  0
    0.0000    0.0000    0.0000 P   0  0  0  0  0  0  0  0  0  0  0  0
    0.0000    1.5000    0.0000 O   0  0  0  0  0  0  0  0  0  0  0  0
   -1.2990    2.2500    0.0000 C   0  0  0  0  0  0  0  0  0  0  0  0
   -1.2990    3.7500    0.0000 C   0  0  0  0  0  0  0  0  0  0  0  0
   -2.5981    1.5000    0.0000 C   0  0  0  0  0  0  0  0  0  0  0  0
    1.2990   -0.7500    0.0000 O   0  0  0  0  0  0  0  0  0  0  0  0
    2.5981    0.0000    0.0000 C   0  0  0  0  0  0  0  0  0  0  0  0
    2.5981    1.5000    0.0000 C   0  0  0  0  0  0  0  0  0  0  0  0
    3.8971   -0.7500    0.0000 C   0  0  0  0  0  0  0  0  0  0  0  0
  1  2  1  0
  2  3  1  0
  2  4  1  0
  4  5  1  0
  5  6  1  0
  6  7  1  0
  7  8  1  0
  7  9  1  0
  5 10  1  0
 10 11  1  0
 11 12  1  0
 11 13  1  0
M  END
>  <linear_selectivity>  (743) 
32

>  <denticity>  (743) 
1

>  <ligand_class>  (743) 
phosphite

$$$$
P(OiPr)3_70C_dioxane
     RDKit          2D

 13 12  0  0  0  0  0  0  0  0999 V2000
   -2.5981   -3.0000    0.0000 C   0  0  0  0  0  0  0  0  0  0  0  0
   -1.2990   -2.2500    0.0000 C   0  0  0  0  0  0  0  0  0  0  0  0
    0.0000   -3.0000    0.0000 C   0  0  0  0  0  0  0  0  0  0  0  0
   -1.2990   -0.7500    0.0000 O   0  0  0  0  0  0  0  0  0  0  0  0
    0.0000    0.0000    0.0000 P   0  0  0  0  0  0  0  0  0  0  0  0
    0.0000    1.5000    0.0000 O   0  0  0  0  0  0  0  0  0  0  0  0
   -1.2990    2.2500    0.0000 C   0  0  0  0  0  0  0  0  0  0  0  0
   -1.2990    3.7500    0.0000 C   0  0  0  0  0  0  0  0  0  0  0  0
   -2.5981    1.5000    0.0000 C   0  0  0  0  0  0  0  0  0  0  0  0
    1.2990   -0.7500    0.0000 O   0  0  0  0  0  0  0  0  0  0  0  0
    2.5981    0.0000    0.0000 C   0  0  0  0  0  0  0  0  0  0  0  0
    2.5981    1.5000    0.0000 C   0  0  0  0  0  0  0  0  0  0  0  0
    3.8971   -0.7500    0.0000 C   0  0  0  0  0  0  0  0  0  0  0  0
  1  2  1  0
  2  3  1  0
  2  4  1  0
  4  5  1  0
  5  6  1  0
  6  7  1  0
  7  8  1  0
  7  9  1  0
  5 10  1  0
 10 11  1  0
 11 12  1  0
 11 13  1  0
M  END
>  <linear_selectivity>  (744) 
32

>  <denticity>  (744) 
1

>  <ligand_class>  (744) 
phosphite

$$$$
P(OiPr)3_70C_hexane
     RDKit          2D

 13 12  0  0  0  0  0  0  0  0999 V2000
   -2.5981   -3.0000    0.0000 C   0  0  0  0  0  0  0  0  0  0  0  0
   -1.2990   -2.2500    0.0000 C   0  0  0  0  0  0  0  0  0  0  0  0
    0.0000   -3.0000    0.0000 C   0  0  0  0  0  0  0  0  0  0  0  0
   -1.2990   -0.7500    0.0000 O   0  0  0  0  0  0  0  0  0  0  0  0
    0.0000    0.0000    0.0000 P   0  0  0  0  0  0  0  0  0  0  0  0
    0.0000    1.5000    0.0000 O   0  0  0  0  0  0  0  0  0  0  0  0
   -1.2990    2.2500    0.0000 C   0  0  0  0  0  0  0  0  0  0  0  0
   -1.2990    3.7500    0.0000 C   0  0  0  0  0  0  0  0  0  0  0  0
   -2.5981    1.5000    0.0000 C   0  0  0  0  0  0  0  0  0  0  0  0
    1.2990   -0.7500    0.0000 O   0  0  0  0  0  0  0  0  0  0  0  0
    2.5981    0.0000    0.0000 C   0  0  0  0  0  0  0  0  0  0  0  0
    2.5981    1.5000    0.0000 C   0  0  0  0  0  0  0  0  0  0  0  0
    3.8971   -0.7500    0.0000 C   0  0  0  0  0  0  0  0  0  0  0  0
  1  2  1  0
  2  3  1  0
  2  4  1  0
  4  5  1  0
  5  6  1  0
  6  7  1  0
  7  8  1  0
  7  9  1  0
  5 10  1  0
 10 11  1  0
 11 12  1  0
 11 13  1  0
M  END
>  <linear_selectivity>  (745) 
35

>  <denticity>  (745) 
1

>  <ligand_class>  (745) 
phosphite

$$$$
P(OiPr)3_70C_benzene
     RDKit          2D

 13 12  0  0  0  0  0  0  0  0999 V2000
   -2.5981   -3.0000    0.0000 C   0  0  0  0  0  0  0  0  0  0  0  0
   -1.2990   -2.2500    0.0000 C   0  0  0  0  0  0  0  0  0  0  0  0
    0.0000   -3.0000    0.0000 C   0  0  0  0  0  0  0  0  0  0  0  0
   -1.2990   -0.7500    0.0000 O   0  0  0  0  0  0  0  0  0  0  0  0
    0.0000    0.0000    0.0000 P   0  0  0  0  0  0  0  0  0  0  0  0
    0.0000    1.5000    0.0000 O   0  0  0  0  0  0  0  0  0  0  0  0
   -1.2990    2.2500    0.0000 C   0  0  0  0  0  0  0  0  0  0  0  0
   -1.2990    3.7500    0.0000 C   0  0  0  0  0  0  0  0  0  0  0  0
   -2.5981    1.5000    0.0000 C   0  0  0  0  0  0  0  0  0  0  0  0
    1.2990   -0.7500    0.0000 O   0  0  0  0  0  0  0  0  0  0  0  0
    2.5981    0.0000    0.0000 C   0  0  0  0  0  0  0  0  0  0  0  0
    2.5981    1.5000    0.0000 C   0  0  0  0  0  0  0  0  0  0  0  0
    3.8971   -0.7500    0.0000 C   0  0  0  0  0  0  0  0  0  0  0  0
  1  2  1  0
  2  3  1  0
  2  4  1  0
  4  5  1  0
  5  6  1  0
  6  7  1  0
  7  8  1  0
  7  9  1  0
  5 10  1  0
 10 11  1  0
 11 12  1  0
 11 13  1  0
M  END
>  <linear_selectivity>  (746) 
40

>  <denticity>  (746) 
1

>  <ligand_class>  (746) 
phosphite

$$$$
P(OiPr)3_80C_toluene
     RDKit          2D

 13 12  0  0  0  0  0  0  0  0999 V2000
   -2.5981   -3.0000    0.0000 C   0  0  0  0  0  0  0  0  0  0  0  0
   -1.2990   -2.2500    0.0000 C   0  0  0  0  0  0  0  0  0  0  0  0
    0.0000   -3.0000    0.0000 C   0  0  0  0  0  0  0  0  0  0  0  0
   -1.2990   -0.7500    0.0000 O   0  0  0  0  0  0  0  0  0  0  0  0
    0.0000    0.0000    0.0000 P   0  0  0  0  0  0  0  0  0  0  0  0
    0.0000    1.5000    0.0000 O   0  0  0  0  0  0  0  0  0  0  0  0
   -1.2990    2.2500    0.0000 C   0  0  0  0  0  0  0  0  0  0  0  0
   -1.2990    3.7500    0.0000 C   0  0  0  0  0  0  0  0  0  0  0  0
   -2.5981    1.5000    0.0000 C   0  0  0  0  0  0  0  0  0  0  0  0
    1.2990   -0.7500    0.0000 O   0  0  0  0  0  0  0  0  0  0  0  0
    2.5981    0.0000    0.0000 C   0  0  0  0  0  0  0  0  0  0  0  0
    2.5981    1.5000    0.0000 C   0  0  0  0  0  0  0  0  0  0  0  0
    3.8971   -0.7500    0.0000 C   0  0  0  0  0  0  0  0  0  0  0  0
  1  2  1  0
  2  3  1  0
  2  4  1  0
  4  5  1  0
  5  6  1  0
  6  7  1  0
  7  8  1  0
  7  9  1  0
  5 10  1  0
 10 11  1  0
 11 12  1  0
 11 13  1  0
M  END
>  <linear_selectivity>  (747) 
35

>  <denticity>  (747) 
1

>  <ligand_class>  (747) 
phosphite

$$$$
P(OiPr)3_80C_THF
     RDKit          2D

 13 12  0  0  0  0  0  0  0  0999 V2000
   -2.5981   -3.0000    0.0000 C   0  0  0  0  0  0  0  0  0  0  0  0
   -1.2990   -2.2500    0.0000 C   0  0  0  0  0  0  0  0  0  0  0  0
    0.0000   -3.0000    0.0000 C   0  0  0  0  0  0  0  0  0  0  0  0
   -1.2990   -0.7500    0.0000 O   0  0  0  0  0  0  0  0  0  0  0  0
    0.0000    0.0000    0.0000 P   0  0  0  0  0  0  0  0  0  0  0  0
    0.0000    1.5000    0.0000 O   0  0  0  0  0  0  0  0  0  0  0  0
   -1.2990    2.2500    0.0000 C   0  0  0  0  0  0  0  0  0  0  0  0
   -1.2990    3.7500    0.0000 C   0  0  0  0  0  0  0  0  0  0  0  0
   -2.5981    1.5000    0.0000 C   0  0  0  0  0  0  0  0  0  0  0  0
    1.2990   -0.7500    0.0000 O   0  0  0  0  0  0  0  0  0  0  0  0
    2.5981    0.0000    0.0000 C   0  0  0  0  0  0  0  0  0  0  0  0
    2.5981    1.5000    0.0000 C   0  0  0  0  0  0  0  0  0  0  0  0
    3.8971   -0.7500    0.0000 C   0  0  0  0  0  0  0  0  0  0  0  0
  1  2  1  0
  2  3  1  0
  2  4  1  0
  4  5  1  0
  5  6  1  0
  6  7  1  0
  7  8  1  0
  7  9  1  0
  5 10  1  0
 10 11  1  0
 11 12  1  0
 11 13  1  0
M  END
>  <linear_selectivity>  (748) 
32

>  <denticity>  (748) 
1

>  <ligand_class>  (748) 
phosphite

$$$$
P(OiPr)3_80C_dioxane
     RDKit          2D

 13 12  0  0  0  0  0  0  0  0999 V2000
   -2.5981   -3.0000    0.0000 C   0  0  0  0  0  0  0  0  0  0  0  0
   -1.2990   -2.2500    0.0000 C   0  0  0  0  0  0  0  0  0  0  0  0
    0.0000   -3.0000    0.0000 C   0  0  0  0  0  0  0  0  0  0  0  0
   -1.2990   -0.7500    0.0000 O   0  0  0  0  0  0  0  0  0  0  0  0
    0.0000    0.0000    0.0000 P   0  0  0  0  0  0  0  0  0  0  0  0
    0.0000    1.5000    0.0000 O   0  0  0  0  0  0  0  0  0  0  0  0
   -1.2990    2.2500    0.0000 C   0  0  0  0  0  0  0  0  0  0  0  0
   -1.2990    3.7500    0.0000 C   0  0  0  0  0  0  0  0  0  0  0  0
   -2.5981    1.5000    0.0000 C   0  0  0  0  0  0  0  0  0  0  0  0
    1.2990   -0.7500    0.0000 O   0  0  0  0  0  0  0  0  0  0  0  0
    2.5981    0.0000    0.0000 C   0  0  0  0  0  0  0  0  0  0  0  0
    2.5981    1.5000    0.0000 C   0  0  0  0  0  0  0  0  0  0  0  0
    3.8971   -0.7500    0.0000 C   0  0  0  0  0  0  0  0  0  0  0  0
  1  2  1  0
  2  3  1  0
  2  4  1  0
  4  5  1  0
  5  6  1  0
  6  7  1  0
  7  8  1  0
  7  9  1  0
  5 10  1  0
 10 11  1  0
 11 12  1  0
 11 13  1  0
M  END
>  <linear_selectivity>  (749) 
34

>  <denticity>  (749) 
1

>  <ligand_class>  (749) 
phosphite

$$$$
P(OiPr)3_80C_xylene
     RDKit          2D

 13 12  0  0  0  0  0  0  0  0999 V2000
   -2.5981   -3.0000    0.0000 C   0  0  0  0  0  0  0  0  0  0  0  0
   -1.2990   -2.2500    0.0000 C   0  0  0  0  0  0  0  0  0  0  0  0
    0.0000   -3.0000    0.0000 C   0  0  0  0  0  0  0  0  0  0  0  0
   -1.2990   -0.7500    0.0000 O   0  0  0  0  0  0  0  0  0  0  0  0
    0.0000    0.0000    0.0000 P   0  0  0  0  0  0  0  0  0  0  0  0
    0.0000    1.5000    0.0000 O   0  0  0  0  0  0  0  0  0  0  0  0
   -1.2990    2.2500    0.0000 C   0  0  0  0  0  0  0  0  0  0  0  0
   -1.2990    3.7500    0.0000 C   0  0  0  0  0  0  0  0  0  0  0  0
   -2.5981    1.5000    0.0000 C   0  0  0  0  0  0  0  0  0  0  0  0
    1.2990   -0.7500    0.0000 O   0  0  0  0  0  0  0  0  0  0  0  0
    2.5981    0.0000    0.0000 C   0  0  0  0  0  0  0  0  0  0  0  0
    2.5981    1.5000    0.0000 C   0  0  0  0  0  0  0  0  0  0  0  0
    3.8971   -0.7500    0.0000 C   0  0  0  0  0  0  0  0  0  0  0  0
  1  2  1  0
  2  3  1  0
  2  4  1  0
  4  5  1  0
  5  6  1  0
  6  7  1  0
  7  8  1  0
  7  9  1  0
  5 10  1  0
 10 11  1  0
 11 12  1  0
 11 13  1  0
M  END
>  <linear_selectivity>  (750) 
39

>  <denticity>  (750) 
1

>  <ligand_class>  (750) 
phosphite

$$$$
P(OiPr)3_90C_toluene
     RDKit          2D

 13 12  0  0  0  0  0  0  0  0999 V2000
   -2.5981   -3.0000    0.0000 C   0  0  0  0  0  0  0  0  0  0  0  0
   -1.2990   -2.2500    0.0000 C   0  0  0  0  0  0  0  0  0  0  0  0
    0.0000   -3.0000    0.0000 C   0  0  0  0  0  0  0  0  0  0  0  0
   -1.2990   -0.7500    0.0000 O   0  0  0  0  0  0  0  0  0  0  0  0
    0.0000    0.0000    0.0000 P   0  0  0  0  0  0  0  0  0  0  0  0
    0.0000    1.5000    0.0000 O   0  0  0  0  0  0  0  0  0  0  0  0
   -1.2990    2.2500    0.0000 C   0  0  0  0  0  0  0  0  0  0  0  0
   -1.2990    3.7500    0.0000 C   0  0  0  0  0  0  0  0  0  0  0  0
   -2.5981    1.5000    0.0000 C   0  0  0  0  0  0  0  0  0  0  0  0
    1.2990   -0.7500    0.0000 O   0  0  0  0  0  0  0  0  0  0  0  0
    2.5981    0.0000    0.0000 C   0  0  0  0  0  0  0  0  0  0  0  0
    2.5981    1.5000    0.0000 C   0  0  0  0  0  0  0  0  0  0  0  0
    3.8971   -0.7500    0.0000 C   0  0  0  0  0  0  0  0  0  0  0  0
  1  2  1  0
  2  3  1  0
  2  4  1  0
  4  5  1  0
  5  6  1  0
  6  7  1  0
  7  8  1  0
  7  9  1  0
  5 10  1  0
 10 11  1  0
 11 12  1  0
 11 13  1  0
M  END
>  <linear_selectivity>  (751) 
35

>  <denticity>  (751) 
1

>  <ligand_class>  (751) 
phosphite

$$$$
P(OiPr)3_90C_dioxane
     RDKit          2D

 13 12  0  0  0  0  0  0  0  0999 V2000
   -2.5981   -3.0000    0.0000 C   0  0  0  0  0  0  0  0  0  0  0  0
   -1.2990   -2.2500    0.0000 C   0  0  0  0  0  0  0  0  0  0  0  0
    0.0000   -3.0000    0.0000 C   0  0  0  0  0  0  0  0  0  0  0  0
   -1.2990   -0.7500    0.0000 O   0  0  0  0  0  0  0  0  0  0  0  0
    0.0000    0.0000    0.0000 P   0  0  0  0  0  0  0  0  0  0  0  0
    0.0000    1.5000    0.0000 O   0  0  0  0  0  0  0  0  0  0  0  0
   -1.2990    2.2500    0.0000 C   0  0  0  0  0  0  0  0  0  0  0  0
   -1.2990    3.7500    0.0000 C   0  0  0  0  0  0  0  0  0  0  0  0
   -2.5981    1.5000    0.0000 C   0  0  0  0  0  0  0  0  0  0  0  0
    1.2990   -0.7500    0.0000 O   0  0  0  0  0  0  0  0  0  0  0  0
    2.5981    0.0000    0.0000 C   0  0  0  0  0  0  0  0  0  0  0  0
    2.5981    1.5000    0.0000 C   0  0  0  0  0  0  0  0  0  0  0  0
    3.8971   -0.7500    0.0000 C   0  0  0  0  0  0  0  0  0  0  0  0
  1  2  1  0
  2  3  1  0
  2  4  1  0
  4  5  1  0
  5  6  1  0
  6  7  1  0
  7  8  1  0
  7  9  1  0
  5 10  1  0
 10 11  1  0
 11 12  1  0
 11 13  1  0
M  END
>  <linear_selectivity>  (752) 
33

>  <denticity>  (752) 
1

>  <ligand_class>  (752) 
phosphite

$$$$
P(OiPr)3_90C_hexane
     RDKit          2D

 13 12  0  0  0  0  0  0  0  0999 V2000
   -2.5981   -3.0000    0.0000 C   0  0  0  0  0  0  0  0  0  0  0  0
   -1.2990   -2.2500    0.0000 C   0  0  0  0  0  0  0  0  0  0  0  0
    0.0000   -3.0000    0.0000 C   0  0  0  0  0  0  0  0  0  0  0  0
   -1.2990   -0.7500    0.0000 O   0  0  0  0  0  0  0  0  0  0  0  0
    0.0000    0.0000    0.0000 P   0  0  0  0  0  0  0  0  0  0  0  0
    0.0000    1.5000    0.0000 O   0  0  0  0  0  0  0  0  0  0  0  0
   -1.2990    2.2500    0.0000 C   0  0  0  0  0  0  0  0  0  0  0  0
   -1.2990    3.7500    0.0000 C   0  0  0  0  0  0  0  0  0  0  0  0
   -2.5981    1.5000    0.0000 C   0  0  0  0  0  0  0  0  0  0  0  0
    1.2990   -0.7500    0.0000 O   0  0  0  0  0  0  0  0  0  0  0  0
    2.5981    0.0000    0.0000 C   0  0  0  0  0  0  0  0  0  0  0  0
    2.5981    1.5000    0.0000 C   0  0  0  0  0  0  0  0  0  0  0  0
    3.8971   -0.7500    0.0000 C   0  0  0  0  0  0  0  0  0  0  0  0
  1  2  1  0
  2  3  1  0
  2  4  1  0
  4  5  1  0
  5  6  1  0
  6  7  1  0
  7  8  1  0
  7  9  1  0
  5 10  1  0
 10 11  1  0
 11 12  1  0
 11 13  1  0
M  END
>  <linear_selectivity>  (753) 
35

>  <denticity>  (753) 
1

>  <ligand_class>  (753) 
phosphite

$$$$
P(OiPr)3_90C_benzene
     RDKit          2D

 13 12  0  0  0  0  0  0  0  0999 V2000
   -2.5981   -3.0000    0.0000 C   0  0  0  0  0  0  0  0  0  0  0  0
   -1.2990   -2.2500    0.0000 C   0  0  0  0  0  0  0  0  0  0  0  0
    0.0000   -3.0000    0.0000 C   0  0  0  0  0  0  0  0  0  0  0  0
   -1.2990   -0.7500    0.0000 O   0  0  0  0  0  0  0  0  0  0  0  0
    0.0000    0.0000    0.0000 P   0  0  0  0  0  0  0  0  0  0  0  0
    0.0000    1.5000    0.0000 O   0  0  0  0  0  0  0  0  0  0  0  0
   -1.2990    2.2500    0.0000 C   0  0  0  0  0  0  0  0  0  0  0  0
   -1.2990    3.7500    0.0000 C   0  0  0  0  0  0  0  0  0  0  0  0
   -2.5981    1.5000    0.0000 C   0  0  0  0  0  0  0  0  0  0  0  0
    1.2990   -0.7500    0.0000 O   0  0  0  0  0  0  0  0  0  0  0  0
    2.5981    0.0000    0.0000 C   0  0  0  0  0  0  0  0  0  0  0  0
    2.5981    1.5000    0.0000 C   0  0  0  0  0  0  0  0  0  0  0  0
    3.8971   -0.7500    0.0000 C   0  0  0  0  0  0  0  0  0  0  0  0
  1  2  1  0
  2  3  1  0
  2  4  1  0
  4  5  1  0
  5  6  1  0
  6  7  1  0
  7  8  1  0
  7  9  1  0
  5 10  1  0
 10 11  1  0
 11 12  1  0
 11 13  1  0
M  END
>  <linear_selectivity>  (754) 
35

>  <denticity>  (754) 
1

>  <ligand_class>  (754) 
phosphite

$$$$
P(OiPr)3_90C_xylene
     RDKit          2D

 13 12  0  0  0  0  0  0  0  0999 V2000
   -2.5981   -3.0000    0.0000 C   0  0  0  0  0  0  0  0  0  0  0  0
   -1.2990   -2.2500    0.0000 C   0  0  0  0  0  0  0  0  0  0  0  0
    0.0000   -3.0000    0.0000 C   0  0  0  0  0  0  0  0  0  0  0  0
   -1.2990   -0.7500    0.0000 O   0  0  0  0  0  0  0  0  0  0  0  0
    0.0000    0.0000    0.0000 P   0  0  0  0  0  0  0  0  0  0  0  0
    0.0000    1.5000    0.0000 O   0  0  0  0  0  0  0  0  0  0  0  0
   -1.2990    2.2500    0.0000 C   0  0  0  0  0  0  0  0  0  0  0  0
   -1.2990    3.7500    0.0000 C   0  0  0  0  0  0  0  0  0  0  0  0
   -2.5981    1.5000    0.0000 C   0  0  0  0  0  0  0  0  0  0  0  0
    1.2990   -0.7500    0.0000 O   0  0  0  0  0  0  0  0  0  0  0  0
    2.5981    0.0000    0.0000 C   0  0  0  0  0  0  0  0  0  0  0  0
    2.5981    1.5000    0.0000 C   0  0  0  0  0  0  0  0  0  0  0  0
    3.8971   -0.7500    0.0000 C   0  0  0  0  0  0  0  0  0  0  0  0
  1  2  1  0
  2  3  1  0
  2  4  1  0
  4  5  1  0
  5  6  1  0
  6  7  1  0
  7  8  1  0
  7  9  1  0
  5 10  1  0
 10 11  1  0
 11 12  1  0
 11 13  1  0
M  END
>  <linear_selectivity>  (755) 
34

>  <denticity>  (755) 
1

>  <ligand_class>  (755) 
phosphite

$$$$
P(OiPr)3_100C_toluene
     RDKit          2D

 13 12  0  0  0  0  0  0  0  0999 V2000
   -2.5981   -3.0000    0.0000 C   0  0  0  0  0  0  0  0  0  0  0  0
   -1.2990   -2.2500    0.0000 C   0  0  0  0  0  0  0  0  0  0  0  0
    0.0000   -3.0000    0.0000 C   0  0  0  0  0  0  0  0  0  0  0  0
   -1.2990   -0.7500    0.0000 O   0  0  0  0  0  0  0  0  0  0  0  0
    0.0000    0.0000    0.0000 P   0  0  0  0  0  0  0  0  0  0  0  0
    0.0000    1.5000    0.0000 O   0  0  0  0  0  0  0  0  0  0  0  0
   -1.2990    2.2500    0.0000 C   0  0  0  0  0  0  0  0  0  0  0  0
   -1.2990    3.7500    0.0000 C   0  0  0  0  0  0  0  0  0  0  0  0
   -2.5981    1.5000    0.0000 C   0  0  0  0  0  0  0  0  0  0  0  0
    1.2990   -0.7500    0.0000 O   0  0  0  0  0  0  0  0  0  0  0  0
    2.5981    0.0000    0.0000 C   0  0  0  0  0  0  0  0  0  0  0  0
    2.5981    1.5000    0.0000 C   0  0  0  0  0  0  0  0  0  0  0  0
    3.8971   -0.7500    0.0000 C   0  0  0  0  0  0  0  0  0  0  0  0
  1  2  1  0
  2  3  1  0
  2  4  1  0
  4  5  1  0
  5  6  1  0
  6  7  1  0
  7  8  1  0
  7  9  1  0
  5 10  1  0
 10 11  1  0
 11 12  1  0
 11 13  1  0
M  END
>  <linear_selectivity>  (756) 
27

>  <denticity>  (756) 
1

>  <ligand_class>  (756) 
phosphite

$$$$
P(OiPr)3_100C_THF
     RDKit          2D

 13 12  0  0  0  0  0  0  0  0999 V2000
   -2.5981   -3.0000    0.0000 C   0  0  0  0  0  0  0  0  0  0  0  0
   -1.2990   -2.2500    0.0000 C   0  0  0  0  0  0  0  0  0  0  0  0
    0.0000   -3.0000    0.0000 C   0  0  0  0  0  0  0  0  0  0  0  0
   -1.2990   -0.7500    0.0000 O   0  0  0  0  0  0  0  0  0  0  0  0
    0.0000    0.0000    0.0000 P   0  0  0  0  0  0  0  0  0  0  0  0
    0.0000    1.5000    0.0000 O   0  0  0  0  0  0  0  0  0  0  0  0
   -1.2990    2.2500    0.0000 C   0  0  0  0  0  0  0  0  0  0  0  0
   -1.2990    3.7500    0.0000 C   0  0  0  0  0  0  0  0  0  0  0  0
   -2.5981    1.5000    0.0000 C   0  0  0  0  0  0  0  0  0  0  0  0
    1.2990   -0.7500    0.0000 O   0  0  0  0  0  0  0  0  0  0  0  0
    2.5981    0.0000    0.0000 C   0  0  0  0  0  0  0  0  0  0  0  0
    2.5981    1.5000    0.0000 C   0  0  0  0  0  0  0  0  0  0  0  0
    3.8971   -0.7500    0.0000 C   0  0  0  0  0  0  0  0  0  0  0  0
  1  2  1  0
  2  3  1  0
  2  4  1  0
  4  5  1  0
  5  6  1  0
  6  7  1  0
  7  8  1  0
  7  9  1  0
  5 10  1  0
 10 11  1  0
 11 12  1  0
 11 13  1  0
M  END
>  <linear_selectivity>  (757) 
31

>  <denticity>  (757) 
1

>  <ligand_class>  (757) 
phosphite

$$$$
P(OiPr)3_100C_dioxane
     RDKit          2D

 13 12  0  0  0  0  0  0  0  0999 V2000
   -2.5981   -3.0000    0.0000 C   0  0  0  0  0  0  0  0  0  0  0  0
   -1.2990   -2.2500    0.0000 C   0  0  0  0  0  0  0  0  0  0  0  0
    0.0000   -3.0000    0.0000 C   0  0  0  0  0  0  0  0  0  0  0  0
   -1.2990   -0.7500    0.0000 O   0  0  0  0  0  0  0  0  0  0  0  0
    0.0000    0.0000    0.0000 P   0  0  0  0  0  0  0  0  0  0  0  0
    0.0000    1.5000    0.0000 O   0  0  0  0  0  0  0  0  0  0  0  0
   -1.2990    2.2500    0.0000 C   0  0  0  0  0  0  0  0  0  0  0  0
   -1.2990    3.7500    0.0000 C   0  0  0  0  0  0  0  0  0  0  0  0
   -2.5981    1.5000    0.0000 C   0  0  0  0  0  0  0  0  0  0  0  0
    1.2990   -0.7500    0.0000 O   0  0  0  0  0  0  0  0  0  0  0  0
    2.5981    0.0000    0.0000 C   0  0  0  0  0  0  0  0  0  0  0  0
    2.5981    1.5000    0.0000 C   0  0  0  0  0  0  0  0  0  0  0  0
    3.8971   -0.7500    0.0000 C   0  0  0  0  0  0  0  0  0  0  0  0
  1  2  1  0
  2  3  1  0
  2  4  1  0
  4  5  1  0
  5  6  1  0
  6  7  1  0
  7  8  1  0
  7  9  1  0
  5 10  1  0
 10 11  1  0
 11 12  1  0
 11 13  1  0
M  END
>  <linear_selectivity>  (758) 
30

>  <denticity>  (758) 
1

>  <ligand_class>  (758) 
phosphite

$$$$
P(OiPr)3_100C_hexane
     RDKit          2D

 13 12  0  0  0  0  0  0  0  0999 V2000
   -2.5981   -3.0000    0.0000 C   0  0  0  0  0  0  0  0  0  0  0  0
   -1.2990   -2.2500    0.0000 C   0  0  0  0  0  0  0  0  0  0  0  0
    0.0000   -3.0000    0.0000 C   0  0  0  0  0  0  0  0  0  0  0  0
   -1.2990   -0.7500    0.0000 O   0  0  0  0  0  0  0  0  0  0  0  0
    0.0000    0.0000    0.0000 P   0  0  0  0  0  0  0  0  0  0  0  0
    0.0000    1.5000    0.0000 O   0  0  0  0  0  0  0  0  0  0  0  0
   -1.2990    2.2500    0.0000 C   0  0  0  0  0  0  0  0  0  0  0  0
   -1.2990    3.7500    0.0000 C   0  0  0  0  0  0  0  0  0  0  0  0
   -2.5981    1.5000    0.0000 C   0  0  0  0  0  0  0  0  0  0  0  0
    1.2990   -0.7500    0.0000 O   0  0  0  0  0  0  0  0  0  0  0  0
    2.5981    0.0000    0.0000 C   0  0  0  0  0  0  0  0  0  0  0  0
    2.5981    1.5000    0.0000 C   0  0  0  0  0  0  0  0  0  0  0  0
    3.8971   -0.7500    0.0000 C   0  0  0  0  0  0  0  0  0  0  0  0
  1  2  1  0
  2  3  1  0
  2  4  1  0
  4  5  1  0
  5  6  1  0
  6  7  1  0
  7  8  1  0
  7  9  1  0
  5 10  1  0
 10 11  1  0
 11 12  1  0
 11 13  1  0
M  END
>  <linear_selectivity>  (759) 
34

>  <denticity>  (759) 
1

>  <ligand_class>  (759) 
phosphite

$$$$
P(OiPr)3_100C_benzene
     RDKit          2D

 13 12  0  0  0  0  0  0  0  0999 V2000
   -2.5981   -3.0000    0.0000 C   0  0  0  0  0  0  0  0  0  0  0  0
   -1.2990   -2.2500    0.0000 C   0  0  0  0  0  0  0  0  0  0  0  0
    0.0000   -3.0000    0.0000 C   0  0  0  0  0  0  0  0  0  0  0  0
   -1.2990   -0.7500    0.0000 O   0  0  0  0  0  0  0  0  0  0  0  0
    0.0000    0.0000    0.0000 P   0  0  0  0  0  0  0  0  0  0  0  0
    0.0000    1.5000    0.0000 O   0  0  0  0  0  0  0  0  0  0  0  0
   -1.2990    2.2500    0.0000 C   0  0  0  0  0  0  0  0  0  0  0  0
   -1.2990    3.7500    0.0000 C   0  0  0  0  0  0  0  0  0  0  0  0
   -2.5981    1.5000    0.0000 C   0  0  0  0  0  0  0  0  0  0  0  0
    1.2990   -0.7500    0.0000 O   0  0  0  0  0  0  0  0  0  0  0  0
    2.5981    0.0000    0.0000 C   0  0  0  0  0  0  0  0  0  0  0  0
    2.5981    1.5000    0.0000 C   0  0  0  0  0  0  0  0  0  0  0  0
    3.8971   -0.7500    0.0000 C   0  0  0  0  0  0  0  0  0  0  0  0
  1  2  1  0
  2  3  1  0
  2  4  1  0
  4  5  1  0
  5  6  1  0
  6  7  1  0
  7  8  1  0
  7  9  1  0
  5 10  1  0
 10 11  1  0
 11 12  1  0
 11 13  1  0
M  END
>  <linear_selectivity>  (760) 
33

>  <denticity>  (760) 
1

>  <ligand_class>  (760) 
phosphite

$$$$
P(OiPr)3_100C_xylene
     RDKit          2D

 13 12  0  0  0  0  0  0  0  0999 V2000
   -2.5981   -3.0000    0.0000 C   0  0  0  0  0  0  0  0  0  0  0  0
   -1.2990   -2.2500    0.0000 C   0  0  0  0  0  0  0  0  0  0  0  0
    0.0000   -3.0000    0.0000 C   0  0  0  0  0  0  0  0  0  0  0  0
   -1.2990   -0.7500    0.0000 O   0  0  0  0  0  0  0  0  0  0  0  0
    0.0000    0.0000    0.0000 P   0  0  0  0  0  0  0  0  0  0  0  0
    0.0000    1.5000    0.0000 O   0  0  0  0  0  0  0  0  0  0  0  0
   -1.2990    2.2500    0.0000 C   0  0  0  0  0  0  0  0  0  0  0  0
   -1.2990    3.7500    0.0000 C   0  0  0  0  0  0  0  0  0  0  0  0
   -2.5981    1.5000    0.0000 C   0  0  0  0  0  0  0  0  0  0  0  0
    1.2990   -0.7500    0.0000 O   0  0  0  0  0  0  0  0  0  0  0  0
    2.5981    0.0000    0.0000 C   0  0  0  0  0  0  0  0  0  0  0  0
    2.5981    1.5000    0.0000 C   0  0  0  0  0  0  0  0  0  0  0  0
    3.8971   -0.7500    0.0000 C   0  0  0  0  0  0  0  0  0  0  0  0
  1  2  1  0
  2  3  1  0
  2  4  1  0
  4  5  1  0
  5  6  1  0
  6  7  1  0
  7  8  1  0
  7  9  1  0
  5 10  1  0
 10 11  1  0
 11 12  1  0
 11 13  1  0
M  END
>  <linear_selectivity>  (761) 
32

>  <denticity>  (761) 
1

>  <ligand_class>  (761) 
phosphite

$$$$
P(OiPr)3_110C_toluene
     RDKit          2D

 13 12  0  0  0  0  0  0  0  0999 V2000
   -2.5981   -3.0000    0.0000 C   0  0  0  0  0  0  0  0  0  0  0  0
   -1.2990   -2.2500    0.0000 C   0  0  0  0  0  0  0  0  0  0  0  0
    0.0000   -3.0000    0.0000 C   0  0  0  0  0  0  0  0  0  0  0  0
   -1.2990   -0.7500    0.0000 O   0  0  0  0  0  0  0  0  0  0  0  0
    0.0000    0.0000    0.0000 P   0  0  0  0  0  0  0  0  0  0  0  0
    0.0000    1.5000    0.0000 O   0  0  0  0  0  0  0  0  0  0  0  0
   -1.2990    2.2500    0.0000 C   0  0  0  0  0  0  0  0  0  0  0  0
   -1.2990    3.7500    0.0000 C   0  0  0  0  0  0  0  0  0  0  0  0
   -2.5981    1.5000    0.0000 C   0  0  0  0  0  0  0  0  0  0  0  0
    1.2990   -0.7500    0.0000 O   0  0  0  0  0  0  0  0  0  0  0  0
    2.5981    0.0000    0.0000 C   0  0  0  0  0  0  0  0  0  0  0  0
    2.5981    1.5000    0.0000 C   0  0  0  0  0  0  0  0  0  0  0  0
    3.8971   -0.7500    0.0000 C   0  0  0  0  0  0  0  0  0  0  0  0
  1  2  1  0
  2  3  1  0
  2  4  1  0
  4  5  1  0
  5  6  1  0
  6  7  1  0
  7  8  1  0
  7  9  1  0
  5 10  1  0
 10 11  1  0
 11 12  1  0
 11 13  1  0
M  END
>  <linear_selectivity>  (762) 
32

>  <denticity>  (762) 
1

>  <ligand_class>  (762) 
phosphite

$$$$
P(OiPr)3_110C_THF
     RDKit          2D

 13 12  0  0  0  0  0  0  0  0999 V2000
   -2.5981   -3.0000    0.0000 C   0  0  0  0  0  0  0  0  0  0  0  0
   -1.2990   -2.2500    0.0000 C   0  0  0  0  0  0  0  0  0  0  0  0
    0.0000   -3.0000    0.0000 C   0  0  0  0  0  0  0  0  0  0  0  0
   -1.2990   -0.7500    0.0000 O   0  0  0  0  0  0  0  0  0  0  0  0
    0.0000    0.0000    0.0000 P   0  0  0  0  0  0  0  0  0  0  0  0
    0.0000    1.5000    0.0000 O   0  0  0  0  0  0  0  0  0  0  0  0
   -1.2990    2.2500    0.0000 C   0  0  0  0  0  0  0  0  0  0  0  0
   -1.2990    3.7500    0.0000 C   0  0  0  0  0  0  0  0  0  0  0  0
   -2.5981    1.5000    0.0000 C   0  0  0  0  0  0  0  0  0  0  0  0
    1.2990   -0.7500    0.0000 O   0  0  0  0  0  0  0  0  0  0  0  0
    2.5981    0.0000    0.0000 C   0  0  0  0  0  0  0  0  0  0  0  0
    2.5981    1.5000    0.0000 C   0  0  0  0  0  0  0  0  0  0  0  0
    3.8971   -0.7500    0.0000 C   0  0  0  0  0  0  0  0  0  0  0  0
  1  2  1  0
  2  3  1  0
  2  4  1  0
  4  5  1  0
  5  6  1  0
  6  7  1  0
  7  8  1  0
  7  9  1  0
  5 10  1  0
 10 11  1  0
 11 12  1  0
 11 13  1  0
M  END
>  <linear_selectivity>  (763) 
26

>  <denticity>  (763) 
1

>  <ligand_class>  (763) 
phosphite

$$$$
P(OiPr)3_110C_dioxane
     RDKit          2D

 13 12  0  0  0  0  0  0  0  0999 V2000
   -2.5981   -3.0000    0.0000 C   0  0  0  0  0  0  0  0  0  0  0  0
   -1.2990   -2.2500    0.0000 C   0  0  0  0  0  0  0  0  0  0  0  0
    0.0000   -3.0000    0.0000 C   0  0  0  0  0  0  0  0  0  0  0  0
   -1.2990   -0.7500    0.0000 O   0  0  0  0  0  0  0  0  0  0  0  0
    0.0000    0.0000    0.0000 P   0  0  0  0  0  0  0  0  0  0  0  0
    0.0000    1.5000    0.0000 O   0  0  0  0  0  0  0  0  0  0  0  0
   -1.2990    2.2500    0.0000 C   0  0  0  0  0  0  0  0  0  0  0  0
   -1.2990    3.7500    0.0000 C   0  0  0  0  0  0  0  0  0  0  0  0
   -2.5981    1.5000    0.0000 C   0  0  0  0  0  0  0  0  0  0  0  0
    1.2990   -0.7500    0.0000 O   0  0  0  0  0  0  0  0  0  0  0  0
    2.5981    0.0000    0.0000 C   0  0  0  0  0  0  0  0  0  0  0  0
    2.5981    1.5000    0.0000 C   0  0  0  0  0  0  0  0  0  0  0  0
    3.8971   -0.7500    0.0000 C   0  0  0  0  0  0  0  0  0  0  0  0
  1  2  1  0
  2  3  1  0
  2  4  1  0
  4  5  1  0
  5  6  1  0
  6  7  1  0
  7  8  1  0
  7  9  1  0
  5 10  1  0
 10 11  1  0
 11 12  1  0
 11 13  1  0
M  END
>  <linear_selectivity>  (764) 
29

>  <denticity>  (764) 
1

>  <ligand_class>  (764) 
phosphite

$$$$
P(OiPr)3_110C_hexane
     RDKit          2D

 13 12  0  0  0  0  0  0  0  0999 V2000
   -2.5981   -3.0000    0.0000 C   0  0  0  0  0  0  0  0  0  0  0  0
   -1.2990   -2.2500    0.0000 C   0  0  0  0  0  0  0  0  0  0  0  0
    0.0000   -3.0000    0.0000 C   0  0  0  0  0  0  0  0  0  0  0  0
   -1.2990   -0.7500    0.0000 O   0  0  0  0  0  0  0  0  0  0  0  0
    0.0000    0.0000    0.0000 P   0  0  0  0  0  0  0  0  0  0  0  0
    0.0000    1.5000    0.0000 O   0  0  0  0  0  0  0  0  0  0  0  0
   -1.2990    2.2500    0.0000 C   0  0  0  0  0  0  0  0  0  0  0  0
   -1.2990    3.7500    0.0000 C   0  0  0  0  0  0  0  0  0  0  0  0
   -2.5981    1.5000    0.0000 C   0  0  0  0  0  0  0  0  0  0  0  0
    1.2990   -0.7500    0.0000 O   0  0  0  0  0  0  0  0  0  0  0  0
    2.5981    0.0000    0.0000 C   0  0  0  0  0  0  0  0  0  0  0  0
    2.5981    1.5000    0.0000 C   0  0  0  0  0  0  0  0  0  0  0  0
    3.8971   -0.7500    0.0000 C   0  0  0  0  0  0  0  0  0  0  0  0
  1  2  1  0
  2  3  1  0
  2  4  1  0
  4  5  1  0
  5  6  1  0
  6  7  1  0
  7  8  1  0
  7  9  1  0
  5 10  1  0
 10 11  1  0
 11 12  1  0
 11 13  1  0
M  END
>  <linear_selectivity>  (765) 
35

>  <denticity>  (765) 
1

>  <ligand_class>  (765) 
phosphite

$$$$
P(OiPr)3_110C_benzene
     RDKit          2D

 13 12  0  0  0  0  0  0  0  0999 V2000
   -2.5981   -3.0000    0.0000 C   0  0  0  0  0  0  0  0  0  0  0  0
   -1.2990   -2.2500    0.0000 C   0  0  0  0  0  0  0  0  0  0  0  0
    0.0000   -3.0000    0.0000 C   0  0  0  0  0  0  0  0  0  0  0  0
   -1.2990   -0.7500    0.0000 O   0  0  0  0  0  0  0  0  0  0  0  0
    0.0000    0.0000    0.0000 P   0  0  0  0  0  0  0  0  0  0  0  0
    0.0000    1.5000    0.0000 O   0  0  0  0  0  0  0  0  0  0  0  0
   -1.2990    2.2500    0.0000 C   0  0  0  0  0  0  0  0  0  0  0  0
   -1.2990    3.7500    0.0000 C   0  0  0  0  0  0  0  0  0  0  0  0
   -2.5981    1.5000    0.0000 C   0  0  0  0  0  0  0  0  0  0  0  0
    1.2990   -0.7500    0.0000 O   0  0  0  0  0  0  0  0  0  0  0  0
    2.5981    0.0000    0.0000 C   0  0  0  0  0  0  0  0  0  0  0  0
    2.5981    1.5000    0.0000 C   0  0  0  0  0  0  0  0  0  0  0  0
    3.8971   -0.7500    0.0000 C   0  0  0  0  0  0  0  0  0  0  0  0
  1  2  1  0
  2  3  1  0
  2  4  1  0
  4  5  1  0
  5  6  1  0
  6  7  1  0
  7  8  1  0
  7  9  1  0
  5 10  1  0
 10 11  1  0
 11 12  1  0
 11 13  1  0
M  END
>  <linear_selectivity>  (766) 
31

>  <denticity>  (766) 
1

>  <ligand_class>  (766) 
phosphite

$$$$
P(OiPr)3_120C_dioxane
     RDKit          2D

 13 12  0  0  0  0  0  0  0  0999 V2000
   -2.5981   -3.0000    0.0000 C   0  0  0  0  0  0  0  0  0  0  0  0
   -1.2990   -2.2500    0.0000 C   0  0  0  0  0  0  0  0  0  0  0  0
    0.0000   -3.0000    0.0000 C   0  0  0  0  0  0  0  0  0  0  0  0
   -1.2990   -0.7500    0.0000 O   0  0  0  0  0  0  0  0  0  0  0  0
    0.0000    0.0000    0.0000 P   0  0  0  0  0  0  0  0  0  0  0  0
    0.0000    1.5000    0.0000 O   0  0  0  0  0  0  0  0  0  0  0  0
   -1.2990    2.2500    0.0000 C   0  0  0  0  0  0  0  0  0  0  0  0
   -1.2990    3.7500    0.0000 C   0  0  0  0  0  0  0  0  0  0  0  0
   -2.5981    1.5000    0.0000 C   0  0  0  0  0  0  0  0  0  0  0  0
    1.2990   -0.7500    0.0000 O   0  0  0  0  0  0  0  0  0  0  0  0
    2.5981    0.0000    0.0000 C   0  0  0  0  0  0  0  0  0  0  0  0
    2.5981    1.5000    0.0000 C   0  0  0  0  0  0  0  0  0  0  0  0
    3.8971   -0.7500    0.0000 C   0  0  0  0  0  0  0  0  0  0  0  0
  1  2  1  0
  2  3  1  0
  2  4  1  0
  4  5  1  0
  5  6  1  0
  6  7  1  0
  7  8  1  0
  7  9  1  0
  5 10  1  0
 10 11  1  0
 11 12  1  0
 11 13  1  0
M  END
>  <linear_selectivity>  (767) 
31

>  <denticity>  (767) 
1

>  <ligand_class>  (767) 
phosphite

$$$$
P(OiPr)3_120C_hexane
     RDKit          2D

 13 12  0  0  0  0  0  0  0  0999 V2000
   -2.5981   -3.0000    0.0000 C   0  0  0  0  0  0  0  0  0  0  0  0
   -1.2990   -2.2500    0.0000 C   0  0  0  0  0  0  0  0  0  0  0  0
    0.0000   -3.0000    0.0000 C   0  0  0  0  0  0  0  0  0  0  0  0
   -1.2990   -0.7500    0.0000 O   0  0  0  0  0  0  0  0  0  0  0  0
    0.0000    0.0000    0.0000 P   0  0  0  0  0  0  0  0  0  0  0  0
    0.0000    1.5000    0.0000 O   0  0  0  0  0  0  0  0  0  0  0  0
   -1.2990    2.2500    0.0000 C   0  0  0  0  0  0  0  0  0  0  0  0
   -1.2990    3.7500    0.0000 C   0  0  0  0  0  0  0  0  0  0  0  0
   -2.5981    1.5000    0.0000 C   0  0  0  0  0  0  0  0  0  0  0  0
    1.2990   -0.7500    0.0000 O   0  0  0  0  0  0  0  0  0  0  0  0
    2.5981    0.0000    0.0000 C   0  0  0  0  0  0  0  0  0  0  0  0
    2.5981    1.5000    0.0000 C   0  0  0  0  0  0  0  0  0  0  0  0
    3.8971   -0.7500    0.0000 C   0  0  0  0  0  0  0  0  0  0  0  0
  1  2  1  0
  2  3  1  0
  2  4  1  0
  4  5  1  0
  5  6  1  0
  6  7  1  0
  7  8  1  0
  7  9  1  0
  5 10  1  0
 10 11  1  0
 11 12  1  0
 11 13  1  0
M  END
>  <linear_selectivity>  (768) 
27

>  <denticity>  (768) 
1

>  <ligand_class>  (768) 
phosphite

$$$$
P(OiPr)3_120C_benzene
     RDKit          2D

 13 12  0  0  0  0  0  0  0  0999 V2000
   -2.5981   -3.0000    0.0000 C   0  0  0  0  0  0  0  0  0  0  0  0
   -1.2990   -2.2500    0.0000 C   0  0  0  0  0  0  0  0  0  0  0  0
    0.0000   -3.0000    0.0000 C   0  0  0  0  0  0  0  0  0  0  0  0
   -1.2990   -0.7500    0.0000 O   0  0  0  0  0  0  0  0  0  0  0  0
    0.0000    0.0000    0.0000 P   0  0  0  0  0  0  0  0  0  0  0  0
    0.0000    1.5000    0.0000 O   0  0  0  0  0  0  0  0  0  0  0  0
   -1.2990    2.2500    0.0000 C   0  0  0  0  0  0  0  0  0  0  0  0
   -1.2990    3.7500    0.0000 C   0  0  0  0  0  0  0  0  0  0  0  0
   -2.5981    1.5000    0.0000 C   0  0  0  0  0  0  0  0  0  0  0  0
    1.2990   -0.7500    0.0000 O   0  0  0  0  0  0  0  0  0  0  0  0
    2.5981    0.0000    0.0000 C   0  0  0  0  0  0  0  0  0  0  0  0
    2.5981    1.5000    0.0000 C   0  0  0  0  0  0  0  0  0  0  0  0
    3.8971   -0.7500    0.0000 C   0  0  0  0  0  0  0  0  0  0  0  0
  1  2  1  0
  2  3  1  0
  2  4  1  0
  4  5  1  0
  5  6  1  0
  6  7  1  0
  7  8  1  0
  7  9  1  0
  5 10  1  0
 10 11  1  0
 11 12  1  0
 11 13  1  0
M  END
>  <linear_selectivity>  (769) 
30

>  <denticity>  (769) 
1

>  <ligand_class>  (769) 
phosphite

$$$$
P(OiPr)3_120C_xylene
     RDKit          2D

 13 12  0  0  0  0  0  0  0  0999 V2000
   -2.5981   -3.0000    0.0000 C   0  0  0  0  0  0  0  0  0  0  0  0
   -1.2990   -2.2500    0.0000 C   0  0  0  0  0  0  0  0  0  0  0  0
    0.0000   -3.0000    0.0000 C   0  0  0  0  0  0  0  0  0  0  0  0
   -1.2990   -0.7500    0.0000 O   0  0  0  0  0  0  0  0  0  0  0  0
    0.0000    0.0000    0.0000 P   0  0  0  0  0  0  0  0  0  0  0  0
    0.0000    1.5000    0.0000 O   0  0  0  0  0  0  0  0  0  0  0  0
   -1.2990    2.2500    0.0000 C   0  0  0  0  0  0  0  0  0  0  0  0
   -1.2990    3.7500    0.0000 C   0  0  0  0  0  0  0  0  0  0  0  0
   -2.5981    1.5000    0.0000 C   0  0  0  0  0  0  0  0  0  0  0  0
    1.2990   -0.7500    0.0000 O   0  0  0  0  0  0  0  0  0  0  0  0
    2.5981    0.0000    0.0000 C   0  0  0  0  0  0  0  0  0  0  0  0
    2.5981    1.5000    0.0000 C   0  0  0  0  0  0  0  0  0  0  0  0
    3.8971   -0.7500    0.0000 C   0  0  0  0  0  0  0  0  0  0  0  0
  1  2  1  0
  2  3  1  0
  2  4  1  0
  4  5  1  0
  5  6  1  0
  6  7  1  0
  7  8  1  0
  7  9  1  0
  5 10  1  0
 10 11  1  0
 11 12  1  0
 11 13  1  0
M  END
>  <linear_selectivity>  (770) 
27

>  <denticity>  (770) 
1

>  <ligand_class>  (770) 
phosphite

$$$$
P(OiPr)3_130C_toluene
     RDKit          2D

 13 12  0  0  0  0  0  0  0  0999 V2000
   -2.5981   -3.0000    0.0000 C   0  0  0  0  0  0  0  0  0  0  0  0
   -1.2990   -2.2500    0.0000 C   0  0  0  0  0  0  0  0  0  0  0  0
    0.0000   -3.0000    0.0000 C   0  0  0  0  0  0  0  0  0  0  0  0
   -1.2990   -0.7500    0.0000 O   0  0  0  0  0  0  0  0  0  0  0  0
    0.0000    0.0000    0.0000 P   0  0  0  0  0  0  0  0  0  0  0  0
    0.0000    1.5000    0.0000 O   0  0  0  0  0  0  0  0  0  0  0  0
   -1.2990    2.2500    0.0000 C   0  0  0  0  0  0  0  0  0  0  0  0
   -1.2990    3.7500    0.0000 C   0  0  0  0  0  0  0  0  0  0  0  0
   -2.5981    1.5000    0.0000 C   0  0  0  0  0  0  0  0  0  0  0  0
    1.2990   -0.7500    0.0000 O   0  0  0  0  0  0  0  0  0  0  0  0
    2.5981    0.0000    0.0000 C   0  0  0  0  0  0  0  0  0  0  0  0
    2.5981    1.5000    0.0000 C   0  0  0  0  0  0  0  0  0  0  0  0
    3.8971   -0.7500    0.0000 C   0  0  0  0  0  0  0  0  0  0  0  0
  1  2  1  0
  2  3  1  0
  2  4  1  0
  4  5  1  0
  5  6  1  0
  6  7  1  0
  7  8  1  0
  7  9  1  0
  5 10  1  0
 10 11  1  0
 11 12  1  0
 11 13  1  0
M  END
>  <linear_selectivity>  (771) 
32

>  <denticity>  (771) 
1

>  <ligand_class>  (771) 
phosphite

$$$$
P(OiPr)3_130C_THF
     RDKit          2D

 13 12  0  0  0  0  0  0  0  0999 V2000
   -2.5981   -3.0000    0.0000 C   0  0  0  0  0  0  0  0  0  0  0  0
   -1.2990   -2.2500    0.0000 C   0  0  0  0  0  0  0  0  0  0  0  0
    0.0000   -3.0000    0.0000 C   0  0  0  0  0  0  0  0  0  0  0  0
   -1.2990   -0.7500    0.0000 O   0  0  0  0  0  0  0  0  0  0  0  0
    0.0000    0.0000    0.0000 P   0  0  0  0  0  0  0  0  0  0  0  0
    0.0000    1.5000    0.0000 O   0  0  0  0  0  0  0  0  0  0  0  0
   -1.2990    2.2500    0.0000 C   0  0  0  0  0  0  0  0  0  0  0  0
   -1.2990    3.7500    0.0000 C   0  0  0  0  0  0  0  0  0  0  0  0
   -2.5981    1.5000    0.0000 C   0  0  0  0  0  0  0  0  0  0  0  0
    1.2990   -0.7500    0.0000 O   0  0  0  0  0  0  0  0  0  0  0  0
    2.5981    0.0000    0.0000 C   0  0  0  0  0  0  0  0  0  0  0  0
    2.5981    1.5000    0.0000 C   0  0  0  0  0  0  0  0  0  0  0  0
    3.8971   -0.7500    0.0000 C   0  0  0  0  0  0  0  0  0  0  0  0
  1  2  1  0
  2  3  1  0
  2  4  1  0
  4  5  1  0
  5  6  1  0
  6  7  1  0
  7  8  1  0
  7  9  1  0
  5 10  1  0
 10 11  1  0
 11 12  1  0
 11 13  1  0
M  END
>  <linear_selectivity>  (772) 
24

>  <denticity>  (772) 
1

>  <ligand_class>  (772) 
phosphite

$$$$
P(OiPr)3_130C_dioxane
     RDKit          2D

 13 12  0  0  0  0  0  0  0  0999 V2000
   -2.5981   -3.0000    0.0000 C   0  0  0  0  0  0  0  0  0  0  0  0
   -1.2990   -2.2500    0.0000 C   0  0  0  0  0  0  0  0  0  0  0  0
    0.0000   -3.0000    0.0000 C   0  0  0  0  0  0  0  0  0  0  0  0
   -1.2990   -0.7500    0.0000 O   0  0  0  0  0  0  0  0  0  0  0  0
    0.0000    0.0000    0.0000 P   0  0  0  0  0  0  0  0  0  0  0  0
    0.0000    1.5000    0.0000 O   0  0  0  0  0  0  0  0  0  0  0  0
   -1.2990    2.2500    0.0000 C   0  0  0  0  0  0  0  0  0  0  0  0
   -1.2990    3.7500    0.0000 C   0  0  0  0  0  0  0  0  0  0  0  0
   -2.5981    1.5000    0.0000 C   0  0  0  0  0  0  0  0  0  0  0  0
    1.2990   -0.7500    0.0000 O   0  0  0  0  0  0  0  0  0  0  0  0
    2.5981    0.0000    0.0000 C   0  0  0  0  0  0  0  0  0  0  0  0
    2.5981    1.5000    0.0000 C   0  0  0  0  0  0  0  0  0  0  0  0
    3.8971   -0.7500    0.0000 C   0  0  0  0  0  0  0  0  0  0  0  0
  1  2  1  0
  2  3  1  0
  2  4  1  0
  4  5  1  0
  5  6  1  0
  6  7  1  0
  7  8  1  0
  7  9  1  0
  5 10  1  0
 10 11  1  0
 11 12  1  0
 11 13  1  0
M  END
>  <linear_selectivity>  (773) 
27

>  <denticity>  (773) 
1

>  <ligand_class>  (773) 
phosphite

$$$$
P(OiPr)3_130C_hexane
     RDKit          2D

 13 12  0  0  0  0  0  0  0  0999 V2000
   -2.5981   -3.0000    0.0000 C   0  0  0  0  0  0  0  0  0  0  0  0
   -1.2990   -2.2500    0.0000 C   0  0  0  0  0  0  0  0  0  0  0  0
    0.0000   -3.0000    0.0000 C   0  0  0  0  0  0  0  0  0  0  0  0
   -1.2990   -0.7500    0.0000 O   0  0  0  0  0  0  0  0  0  0  0  0
    0.0000    0.0000    0.0000 P   0  0  0  0  0  0  0  0  0  0  0  0
    0.0000    1.5000    0.0000 O   0  0  0  0  0  0  0  0  0  0  0  0
   -1.2990    2.2500    0.0000 C   0  0  0  0  0  0  0  0  0  0  0  0
   -1.2990    3.7500    0.0000 C   0  0  0  0  0  0  0  0  0  0  0  0
   -2.5981    1.5000    0.0000 C   0  0  0  0  0  0  0  0  0  0  0  0
    1.2990   -0.7500    0.0000 O   0  0  0  0  0  0  0  0  0  0  0  0
    2.5981    0.0000    0.0000 C   0  0  0  0  0  0  0  0  0  0  0  0
    2.5981    1.5000    0.0000 C   0  0  0  0  0  0  0  0  0  0  0  0
    3.8971   -0.7500    0.0000 C   0  0  0  0  0  0  0  0  0  0  0  0
  1  2  1  0
  2  3  1  0
  2  4  1  0
  4  5  1  0
  5  6  1  0
  6  7  1  0
  7  8  1  0
  7  9  1  0
  5 10  1  0
 10 11  1  0
 11 12  1  0
 11 13  1  0
M  END
>  <linear_selectivity>  (774) 
30

>  <denticity>  (774) 
1

>  <ligand_class>  (774) 
phosphite

$$$$
P(OiPr)3_130C_benzene
     RDKit          2D

 13 12  0  0  0  0  0  0  0  0999 V2000
   -2.5981   -3.0000    0.0000 C   0  0  0  0  0  0  0  0  0  0  0  0
   -1.2990   -2.2500    0.0000 C   0  0  0  0  0  0  0  0  0  0  0  0
    0.0000   -3.0000    0.0000 C   0  0  0  0  0  0  0  0  0  0  0  0
   -1.2990   -0.7500    0.0000 O   0  0  0  0  0  0  0  0  0  0  0  0
    0.0000    0.0000    0.0000 P   0  0  0  0  0  0  0  0  0  0  0  0
    0.0000    1.5000    0.0000 O   0  0  0  0  0  0  0  0  0  0  0  0
   -1.2990    2.2500    0.0000 C   0  0  0  0  0  0  0  0  0  0  0  0
   -1.2990    3.7500    0.0000 C   0  0  0  0  0  0  0  0  0  0  0  0
   -2.5981    1.5000    0.0000 C   0  0  0  0  0  0  0  0  0  0  0  0
    1.2990   -0.7500    0.0000 O   0  0  0  0  0  0  0  0  0  0  0  0
    2.5981    0.0000    0.0000 C   0  0  0  0  0  0  0  0  0  0  0  0
    2.5981    1.5000    0.0000 C   0  0  0  0  0  0  0  0  0  0  0  0
    3.8971   -0.7500    0.0000 C   0  0  0  0  0  0  0  0  0  0  0  0
  1  2  1  0
  2  3  1  0
  2  4  1  0
  4  5  1  0
  5  6  1  0
  6  7  1  0
  7  8  1  0
  7  9  1  0
  5 10  1  0
 10 11  1  0
 11 12  1  0
 11 13  1  0
M  END
>  <linear_selectivity>  (775) 
28

>  <denticity>  (775) 
1

>  <ligand_class>  (775) 
phosphite

$$$$
dppm
     RDKit          2D

 14 15  0  0  0  0  0  0  0  0999 V2000
   -0.0000    2.6786    0.0000 C   0  0  0  0  0  0  0  0  0  0  0  0
   -0.0000    1.1786    0.0000 P   0  0  0  0  0  0  0  0  0  0  0  0
    1.2990    0.4286    0.0000 C   0  0  0  0  0  0  0  0  0  0  0  0
    1.2990   -1.0714    0.0000 C   0  0  0  0  0  0  0  0  0  0  0  0
    2.5981   -1.8214    0.0000 C   0  0  0  0  0  0  0  0  0  0  0  0
    3.8971   -1.0714    0.0000 C   0  0  0  0  0  0  0  0  0  0  0  0
    3.8971    0.4286    0.0000 C   0  0  0  0  0  0  0  0  0  0  0  0
    2.5981    1.1786    0.0000 C   0  0  0  0  0  0  0  0  0  0  0  0
   -1.2990    0.4286    0.0000 C   0  0  0  0  0  0  0  0  0  0  0  0
   -2.5981    1.1786    0.0000 C   0  0  0  0  0  0  0  0  0  0  0  0
   -3.8971    0.4286    0.0000 C   0  0  0  0  0  0  0  0  0  0  0  0
   -3.8971   -1.0714    0.0000 C   0  0  0  0  0  0  0  0  0  0  0  0
   -2.5981   -1.8214    0.0000 C   0  0  0  0  0  0  0  0  0  0  0  0
   -1.2990   -1.0714    0.0000 C   0  0  0  0  0  0  0  0  0  0  0  0
  1  2  1  0
  2  3  1  0
  3  4  2  0
  4  5  1  0
  5  6  2  0
  6  7  1  0
  7  8  2  0
  2  9  1  0
  9 10  2  0
 10 11  1  0
 11 12  2  0
 12 13  1  0
 13 14  2  0
  8  3  1  0
 14  9  1  0
M  END
>  <linear_selectivity>  (776) 
32

>  <denticity>  (776) 
2

>  <ligand_class>  (776) 
diphosphine

$$$$
dppm_70C_toluene
     RDKit          2D

 14 15  0  0  0  0  0  0  0  0999 V2000
   -0.0000    2.6786    0.0000 C   0  0  0  0  0  0  0  0  0  0  0  0
   -0.0000    1.1786    0.0000 P   0  0  0  0  0  0  0  0  0  0  0  0
    1.2990    0.4286    0.0000 C   0  0  0  0  0  0  0  0  0  0  0  0
    1.2990   -1.0714    0.0000 C   0  0  0  0  0  0  0  0  0  0  0  0
    2.5981   -1.8214    0.0000 C   0  0  0  0  0  0  0  0  0  0  0  0
    3.8971   -1.0714    0.0000 C   0  0  0  0  0  0  0  0  0  0  0  0
    3.8971    0.4286    0.0000 C   0  0  0  0  0  0  0  0  0  0  0  0
    2.5981    1.1786    0.0000 C   0  0  0  0  0  0  0  0  0  0  0  0
   -1.2990    0.4286    0.0000 C   0  0  0  0  0  0  0  0  0  0  0  0
   -2.5981    1.1786    0.0000 C   0  0  0  0  0  0  0  0  0  0  0  0
   -3.8971    0.4286    0.0000 C   0  0  0  0  0  0  0  0  0  0  0  0
   -3.8971   -1.0714    0.0000 C   0  0  0  0  0  0  0  0  0  0  0  0
   -2.5981   -1.8214    0.0000 C   0  0  0  0  0  0  0  0  0  0  0  0
   -1.2990   -1.0714    0.0000 C   0  0  0  0  0  0  0  0  0  0  0  0
  1  2  1  0
  2  3  1  0
  3  4  2  0
  4  5  1  0
  5  6  2  0
  6  7  1  0
  7  8  2  0
  2  9  1  0
  9 10  2  0
 10 11  1  0
 11 12  2  0
 12 13  1  0
 13 14  2  0
  8  3  1  0
 14  9  1  0
M  END
>  <linear_selectivity>  (777) 
35

>  <denticity>  (777) 
2

>  <ligand_class>  (777) 
diphosphine

$$$$
dppm_70C_THF
     RDKit          2D

 14 15  0  0  0  0  0  0  0  0999 V2000
   -0.0000    2.6786    0.0000 C   0  0  0  0  0  0  0  0  0  0  0  0
   -0.0000    1.1786    0.0000 P   0  0  0  0  0  0  0  0  0  0  0  0
    1.2990    0.4286    0.0000 C   0  0  0  0  0  0  0  0  0  0  0  0
    1.2990   -1.0714    0.0000 C   0  0  0  0  0  0  0  0  0  0  0  0
    2.5981   -1.8214    0.0000 C   0  0  0  0  0  0  0  0  0  0  0  0
    3.8971   -1.0714    0.0000 C   0  0  0  0  0  0  0  0  0  0  0  0
    3.8971    0.4286    0.0000 C   0  0  0  0  0  0  0  0  0  0  0  0
    2.5981    1.1786    0.0000 C   0  0  0  0  0  0  0  0  0  0  0  0
   -1.2990    0.4286    0.0000 C   0  0  0  0  0  0  0  0  0  0  0  0
   -2.5981    1.1786    0.0000 C   0  0  0  0  0  0  0  0  0  0  0  0
   -3.8971    0.4286    0.0000 C   0  0  0  0  0  0  0  0  0  0  0  0
   -3.8971   -1.0714    0.0000 C   0  0  0  0  0  0  0  0  0  0  0  0
   -2.5981   -1.8214    0.0000 C   0  0  0  0  0  0  0  0  0  0  0  0
   -1.2990   -1.0714    0.0000 C   0  0  0  0  0  0  0  0  0  0  0  0
  1  2  1  0
  2  3  1  0
  3  4  2  0
  4  5  1  0
  5  6  2  0
  6  7  1  0
  7  8  2  0
  2  9  1  0
  9 10  2  0
 10 11  1  0
 11 12  2  0
 12 13  1  0
 13 14  2  0
  8  3  1  0
 14  9  1  0
M  END
>  <linear_selectivity>  (778) 
29

>  <denticity>  (778) 
2

>  <ligand_class>  (778) 
diphosphine

$$$$
dppm_70C_dioxane
     RDKit          2D

 14 15  0  0  0  0  0  0  0  0999 V2000
   -0.0000    2.6786    0.0000 C   0  0  0  0  0  0  0  0  0  0  0  0
   -0.0000    1.1786    0.0000 P   0  0  0  0  0  0  0  0  0  0  0  0
    1.2990    0.4286    0.0000 C   0  0  0  0  0  0  0  0  0  0  0  0
    1.2990   -1.0714    0.0000 C   0  0  0  0  0  0  0  0  0  0  0  0
    2.5981   -1.8214    0.0000 C   0  0  0  0  0  0  0  0  0  0  0  0
    3.8971   -1.0714    0.0000 C   0  0  0  0  0  0  0  0  0  0  0  0
    3.8971    0.4286    0.0000 C   0  0  0  0  0  0  0  0  0  0  0  0
    2.5981    1.1786    0.0000 C   0  0  0  0  0  0  0  0  0  0  0  0
   -1.2990    0.4286    0.0000 C   0  0  0  0  0  0  0  0  0  0  0  0
   -2.5981    1.1786    0.0000 C   0  0  0  0  0  0  0  0  0  0  0  0
   -3.8971    0.4286    0.0000 C   0  0  0  0  0  0  0  0  0  0  0  0
   -3.8971   -1.0714    0.0000 C   0  0  0  0  0  0  0  0  0  0  0  0
   -2.5981   -1.8214    0.0000 C   0  0  0  0  0  0  0  0  0  0  0  0
   -1.2990   -1.0714    0.0000 C   0  0  0  0  0  0  0  0  0  0  0  0
  1  2  1  0
  2  3  1  0
  3  4  2  0
  4  5  1  0
  5  6  2  0
  6  7  1  0
  7  8  2  0
  2  9  1  0
  9 10  2  0
 10 11  1  0
 11 12  2  0
 12 13  1  0
 13 14  2  0
  8  3  1  0
 14  9  1  0
M  END
>  <linear_selectivity>  (779) 
33

>  <denticity>  (779) 
2

>  <ligand_class>  (779) 
diphosphine

$$$$
dppm_70C_xylene
     RDKit          2D

 14 15  0  0  0  0  0  0  0  0999 V2000
   -0.0000    2.6786    0.0000 C   0  0  0  0  0  0  0  0  0  0  0  0
   -0.0000    1.1786    0.0000 P   0  0  0  0  0  0  0  0  0  0  0  0
    1.2990    0.4286    0.0000 C   0  0  0  0  0  0  0  0  0  0  0  0
    1.2990   -1.0714    0.0000 C   0  0  0  0  0  0  0  0  0  0  0  0
    2.5981   -1.8214    0.0000 C   0  0  0  0  0  0  0  0  0  0  0  0
    3.8971   -1.0714    0.0000 C   0  0  0  0  0  0  0  0  0  0  0  0
    3.8971    0.4286    0.0000 C   0  0  0  0  0  0  0  0  0  0  0  0
    2.5981    1.1786    0.0000 C   0  0  0  0  0  0  0  0  0  0  0  0
   -1.2990    0.4286    0.0000 C   0  0  0  0  0  0  0  0  0  0  0  0
   -2.5981    1.1786    0.0000 C   0  0  0  0  0  0  0  0  0  0  0  0
   -3.8971    0.4286    0.0000 C   0  0  0  0  0  0  0  0  0  0  0  0
   -3.8971   -1.0714    0.0000 C   0  0  0  0  0  0  0  0  0  0  0  0
   -2.5981   -1.8214    0.0000 C   0  0  0  0  0  0  0  0  0  0  0  0
   -1.2990   -1.0714    0.0000 C   0  0  0  0  0  0  0  0  0  0  0  0
  1  2  1  0
  2  3  1  0
  3  4  2  0
  4  5  1  0
  5  6  2  0
  6  7  1  0
  7  8  2  0
  2  9  1  0
  9 10  2  0
 10 11  1  0
 11 12  2  0
 12 13  1  0
 13 14  2  0
  8  3  1  0
 14  9  1  0
M  END
>  <linear_selectivity>  (780) 
38

>  <denticity>  (780) 
2

>  <ligand_class>  (780) 
diphosphine

$$$$
dppm_80C_toluene
     RDKit          2D

 14 15  0  0  0  0  0  0  0  0999 V2000
   -0.0000    2.6786    0.0000 C   0  0  0  0  0  0  0  0  0  0  0  0
   -0.0000    1.1786    0.0000 P   0  0  0  0  0  0  0  0  0  0  0  0
    1.2990    0.4286    0.0000 C   0  0  0  0  0  0  0  0  0  0  0  0
    1.2990   -1.0714    0.0000 C   0  0  0  0  0  0  0  0  0  0  0  0
    2.5981   -1.8214    0.0000 C   0  0  0  0  0  0  0  0  0  0  0  0
    3.8971   -1.0714    0.0000 C   0  0  0  0  0  0  0  0  0  0  0  0
    3.8971    0.4286    0.0000 C   0  0  0  0  0  0  0  0  0  0  0  0
    2.5981    1.1786    0.0000 C   0  0  0  0  0  0  0  0  0  0  0  0
   -1.2990    0.4286    0.0000 C   0  0  0  0  0  0  0  0  0  0  0  0
   -2.5981    1.1786    0.0000 C   0  0  0  0  0  0  0  0  0  0  0  0
   -3.8971    0.4286    0.0000 C   0  0  0  0  0  0  0  0  0  0  0  0
   -3.8971   -1.0714    0.0000 C   0  0  0  0  0  0  0  0  0  0  0  0
   -2.5981   -1.8214    0.0000 C   0  0  0  0  0  0  0  0  0  0  0  0
   -1.2990   -1.0714    0.0000 C   0  0  0  0  0  0  0  0  0  0  0  0
  1  2  1  0
  2  3  1  0
  3  4  2  0
  4  5  1  0
  5  6  2  0
  6  7  1  0
  7  8  2  0
  2  9  1  0
  9 10  2  0
 10 11  1  0
 11 12  2  0
 12 13  1  0
 13 14  2  0
  8  3  1  0
 14  9  1  0
M  END
>  <linear_selectivity>  (781) 
33

>  <denticity>  (781) 
2

>  <ligand_class>  (781) 
diphosphine

$$$$
dppm_80C_THF
     RDKit          2D

 14 15  0  0  0  0  0  0  0  0999 V2000
   -0.0000    2.6786    0.0000 C   0  0  0  0  0  0  0  0  0  0  0  0
   -0.0000    1.1786    0.0000 P   0  0  0  0  0  0  0  0  0  0  0  0
    1.2990    0.4286    0.0000 C   0  0  0  0  0  0  0  0  0  0  0  0
    1.2990   -1.0714    0.0000 C   0  0  0  0  0  0  0  0  0  0  0  0
    2.5981   -1.8214    0.0000 C   0  0  0  0  0  0  0  0  0  0  0  0
    3.8971   -1.0714    0.0000 C   0  0  0  0  0  0  0  0  0  0  0  0
    3.8971    0.4286    0.0000 C   0  0  0  0  0  0  0  0  0  0  0  0
    2.5981    1.1786    0.0000 C   0  0  0  0  0  0  0  0  0  0  0  0
   -1.2990    0.4286    0.0000 C   0  0  0  0  0  0  0  0  0  0  0  0
   -2.5981    1.1786    0.0000 C   0  0  0  0  0  0  0  0  0  0  0  0
   -3.8971    0.4286    0.0000 C   0  0  0  0  0  0  0  0  0  0  0  0
   -3.8971   -1.0714    0.0000 C   0  0  0  0  0  0  0  0  0  0  0  0
   -2.5981   -1.8214    0.0000 C   0  0  0  0  0  0  0  0  0  0  0  0
   -1.2990   -1.0714    0.0000 C   0  0  0  0  0  0  0  0  0  0  0  0
  1  2  1  0
  2  3  1  0
  3  4  2  0
  4  5  1  0
  5  6  2  0
  6  7  1  0
  7  8  2  0
  2  9  1  0
  9 10  2  0
 10 11  1  0
 11 12  2  0
 12 13  1  0
 13 14  2  0
  8  3  1  0
 14  9  1  0
M  END
>  <linear_selectivity>  (782) 
33

>  <denticity>  (782) 
2

>  <ligand_class>  (782) 
diphosphine

$$$$
dppm_80C_benzene
     RDKit          2D

 14 15  0  0  0  0  0  0  0  0999 V2000
   -0.0000    2.6786    0.0000 C   0  0  0  0  0  0  0  0  0  0  0  0
   -0.0000    1.1786    0.0000 P   0  0  0  0  0  0  0  0  0  0  0  0
    1.2990    0.4286    0.0000 C   0  0  0  0  0  0  0  0  0  0  0  0
    1.2990   -1.0714    0.0000 C   0  0  0  0  0  0  0  0  0  0  0  0
    2.5981   -1.8214    0.0000 C   0  0  0  0  0  0  0  0  0  0  0  0
    3.8971   -1.0714    0.0000 C   0  0  0  0  0  0  0  0  0  0  0  0
    3.8971    0.4286    0.0000 C   0  0  0  0  0  0  0  0  0  0  0  0
    2.5981    1.1786    0.0000 C   0  0  0  0  0  0  0  0  0  0  0  0
   -1.2990    0.4286    0.0000 C   0  0  0  0  0  0  0  0  0  0  0  0
   -2.5981    1.1786    0.0000 C   0  0  0  0  0  0  0  0  0  0  0  0
   -3.8971    0.4286    0.0000 C   0  0  0  0  0  0  0  0  0  0  0  0
   -3.8971   -1.0714    0.0000 C   0  0  0  0  0  0  0  0  0  0  0  0
   -2.5981   -1.8214    0.0000 C   0  0  0  0  0  0  0  0  0  0  0  0
   -1.2990   -1.0714    0.0000 C   0  0  0  0  0  0  0  0  0  0  0  0
  1  2  1  0
  2  3  1  0
  3  4  2  0
  4  5  1  0
  5  6  2  0
  6  7  1  0
  7  8  2  0
  2  9  1  0
  9 10  2  0
 10 11  1  0
 11 12  2  0
 12 13  1  0
 13 14  2  0
  8  3  1  0
 14  9  1  0
M  END
>  <linear_selectivity>  (783) 
35

>  <denticity>  (783) 
2

>  <ligand_class>  (783) 
diphosphine

$$$$
dppm_80C_xylene
     RDKit          2D

 14 15  0  0  0  0  0  0  0  0999 V2000
   -0.0000    2.6786    0.0000 C   0  0  0  0  0  0  0  0  0  0  0  0
   -0.0000    1.1786    0.0000 P   0  0  0  0  0  0  0  0  0  0  0  0
    1.2990    0.4286    0.0000 C   0  0  0  0  0  0  0  0  0  0  0  0
    1.2990   -1.0714    0.0000 C   0  0  0  0  0  0  0  0  0  0  0  0
    2.5981   -1.8214    0.0000 C   0  0  0  0  0  0  0  0  0  0  0  0
    3.8971   -1.0714    0.0000 C   0  0  0  0  0  0  0  0  0  0  0  0
    3.8971    0.4286    0.0000 C   0  0  0  0  0  0  0  0  0  0  0  0
    2.5981    1.1786    0.0000 C   0  0  0  0  0  0  0  0  0  0  0  0
   -1.2990    0.4286    0.0000 C   0  0  0  0  0  0  0  0  0  0  0  0
   -2.5981    1.1786    0.0000 C   0  0  0  0  0  0  0  0  0  0  0  0
   -3.8971    0.4286    0.0000 C   0  0  0  0  0  0  0  0  0  0  0  0
   -3.8971   -1.0714    0.0000 C   0  0  0  0  0  0  0  0  0  0  0  0
   -2.5981   -1.8214    0.0000 C   0  0  0  0  0  0  0  0  0  0  0  0
   -1.2990   -1.0714    0.0000 C   0  0  0  0  0  0  0  0  0  0  0  0
  1  2  1  0
  2  3  1  0
  3  4  2  0
  4  5  1  0
  5  6  2  0
  6  7  1  0
  7  8  2  0
  2  9  1  0
  9 10  2  0
 10 11  1  0
 11 12  2  0
 12 13  1  0
 13 14  2  0
  8  3  1  0
 14  9  1  0
M  END
>  <linear_selectivity>  (784) 
35

>  <denticity>  (784) 
2

>  <ligand_class>  (784) 
diphosphine

$$$$
dppm_90C_toluene
     RDKit          2D

 14 15  0  0  0  0  0  0  0  0999 V2000
   -0.0000    2.6786    0.0000 C   0  0  0  0  0  0  0  0  0  0  0  0
   -0.0000    1.1786    0.0000 P   0  0  0  0  0  0  0  0  0  0  0  0
    1.2990    0.4286    0.0000 C   0  0  0  0  0  0  0  0  0  0  0  0
    1.2990   -1.0714    0.0000 C   0  0  0  0  0  0  0  0  0  0  0  0
    2.5981   -1.8214    0.0000 C   0  0  0  0  0  0  0  0  0  0  0  0
    3.8971   -1.0714    0.0000 C   0  0  0  0  0  0  0  0  0  0  0  0
    3.8971    0.4286    0.0000 C   0  0  0  0  0  0  0  0  0  0  0  0
    2.5981    1.1786    0.0000 C   0  0  0  0  0  0  0  0  0  0  0  0
   -1.2990    0.4286    0.0000 C   0  0  0  0  0  0  0  0  0  0  0  0
   -2.5981    1.1786    0.0000 C   0  0  0  0  0  0  0  0  0  0  0  0
   -3.8971    0.4286    0.0000 C   0  0  0  0  0  0  0  0  0  0  0  0
   -3.8971   -1.0714    0.0000 C   0  0  0  0  0  0  0  0  0  0  0  0
   -2.5981   -1.8214    0.0000 C   0  0  0  0  0  0  0  0  0  0  0  0
   -1.2990   -1.0714    0.0000 C   0  0  0  0  0  0  0  0  0  0  0  0
  1  2  1  0
  2  3  1  0
  3  4  2  0
  4  5  1  0
  5  6  2  0
  6  7  1  0
  7  8  2  0
  2  9  1  0
  9 10  2  0
 10 11  1  0
 11 12  2  0
 12 13  1  0
 13 14  2  0
  8  3  1  0
 14  9  1  0
M  END
>  <linear_selectivity>  (785) 
32

>  <denticity>  (785) 
2

>  <ligand_class>  (785) 
diphosphine

$$$$
dppm_90C_THF
     RDKit          2D

 14 15  0  0  0  0  0  0  0  0999 V2000
   -0.0000    2.6786    0.0000 C   0  0  0  0  0  0  0  0  0  0  0  0
   -0.0000    1.1786    0.0000 P   0  0  0  0  0  0  0  0  0  0  0  0
    1.2990    0.4286    0.0000 C   0  0  0  0  0  0  0  0  0  0  0  0
    1.2990   -1.0714    0.0000 C   0  0  0  0  0  0  0  0  0  0  0  0
    2.5981   -1.8214    0.0000 C   0  0  0  0  0  0  0  0  0  0  0  0
    3.8971   -1.0714    0.0000 C   0  0  0  0  0  0  0  0  0  0  0  0
    3.8971    0.4286    0.0000 C   0  0  0  0  0  0  0  0  0  0  0  0
    2.5981    1.1786    0.0000 C   0  0  0  0  0  0  0  0  0  0  0  0
   -1.2990    0.4286    0.0000 C   0  0  0  0  0  0  0  0  0  0  0  0
   -2.5981    1.1786    0.0000 C   0  0  0  0  0  0  0  0  0  0  0  0
   -3.8971    0.4286    0.0000 C   0  0  0  0  0  0  0  0  0  0  0  0
   -3.8971   -1.0714    0.0000 C   0  0  0  0  0  0  0  0  0  0  0  0
   -2.5981   -1.8214    0.0000 C   0  0  0  0  0  0  0  0  0  0  0  0
   -1.2990   -1.0714    0.0000 C   0  0  0  0  0  0  0  0  0  0  0  0
  1  2  1  0
  2  3  1  0
  3  4  2  0
  4  5  1  0
  5  6  2  0
  6  7  1  0
  7  8  2  0
  2  9  1  0
  9 10  2  0
 10 11  1  0
 11 12  2  0
 12 13  1  0
 13 14  2  0
  8  3  1  0
 14  9  1  0
M  END
>  <linear_selectivity>  (786) 
31

>  <denticity>  (786) 
2

>  <ligand_class>  (786) 
diphosphine

$$$$
dppm_90C_dioxane
     RDKit          2D

 14 15  0  0  0  0  0  0  0  0999 V2000
   -0.0000    2.6786    0.0000 C   0  0  0  0  0  0  0  0  0  0  0  0
   -0.0000    1.1786    0.0000 P   0  0  0  0  0  0  0  0  0  0  0  0
    1.2990    0.4286    0.0000 C   0  0  0  0  0  0  0  0  0  0  0  0
    1.2990   -1.0714    0.0000 C   0  0  0  0  0  0  0  0  0  0  0  0
    2.5981   -1.8214    0.0000 C   0  0  0  0  0  0  0  0  0  0  0  0
    3.8971   -1.0714    0.0000 C   0  0  0  0  0  0  0  0  0  0  0  0
    3.8971    0.4286    0.0000 C   0  0  0  0  0  0  0  0  0  0  0  0
    2.5981    1.1786    0.0000 C   0  0  0  0  0  0  0  0  0  0  0  0
   -1.2990    0.4286    0.0000 C   0  0  0  0  0  0  0  0  0  0  0  0
   -2.5981    1.1786    0.0000 C   0  0  0  0  0  0  0  0  0  0  0  0
   -3.8971    0.4286    0.0000 C   0  0  0  0  0  0  0  0  0  0  0  0
   -3.8971   -1.0714    0.0000 C   0  0  0  0  0  0  0  0  0  0  0  0
   -2.5981   -1.8214    0.0000 C   0  0  0  0  0  0  0  0  0  0  0  0
   -1.2990   -1.0714    0.0000 C   0  0  0  0  0  0  0  0  0  0  0  0
  1  2  1  0
  2  3  1  0
  3  4  2  0
  4  5  1  0
  5  6  2  0
  6  7  1  0
  7  8  2  0
  2  9  1  0
  9 10  2  0
 10 11  1  0
 11 12  2  0
 12 13  1  0
 13 14  2  0
  8  3  1  0
 14  9  1  0
M  END
>  <linear_selectivity>  (787) 
30

>  <denticity>  (787) 
2

>  <ligand_class>  (787) 
diphosphine

$$$$
dppm_90C_hexane
     RDKit          2D

 14 15  0  0  0  0  0  0  0  0999 V2000
   -0.0000    2.6786    0.0000 C   0  0  0  0  0  0  0  0  0  0  0  0
   -0.0000    1.1786    0.0000 P   0  0  0  0  0  0  0  0  0  0  0  0
    1.2990    0.4286    0.0000 C   0  0  0  0  0  0  0  0  0  0  0  0
    1.2990   -1.0714    0.0000 C   0  0  0  0  0  0  0  0  0  0  0  0
    2.5981   -1.8214    0.0000 C   0  0  0  0  0  0  0  0  0  0  0  0
    3.8971   -1.0714    0.0000 C   0  0  0  0  0  0  0  0  0  0  0  0
    3.8971    0.4286    0.0000 C   0  0  0  0  0  0  0  0  0  0  0  0
    2.5981    1.1786    0.0000 C   0  0  0  0  0  0  0  0  0  0  0  0
   -1.2990    0.4286    0.0000 C   0  0  0  0  0  0  0  0  0  0  0  0
   -2.5981    1.1786    0.0000 C   0  0  0  0  0  0  0  0  0  0  0  0
   -3.8971    0.4286    0.0000 C   0  0  0  0  0  0  0  0  0  0  0  0
   -3.8971   -1.0714    0.0000 C   0  0  0  0  0  0  0  0  0  0  0  0
   -2.5981   -1.8214    0.0000 C   0  0  0  0  0  0  0  0  0  0  0  0
   -1.2990   -1.0714    0.0000 C   0  0  0  0  0  0  0  0  0  0  0  0
  1  2  1  0
  2  3  1  0
  3  4  2  0
  4  5  1  0
  5  6  2  0
  6  7  1  0
  7  8  2  0
  2  9  1  0
  9 10  2  0
 10 11  1  0
 11 12  2  0
 12 13  1  0
 13 14  2  0
  8  3  1  0
 14  9  1  0
M  END
>  <linear_selectivity>  (788) 
32

>  <denticity>  (788) 
2

>  <ligand_class>  (788) 
diphosphine

$$$$
dppm_90C_xylene
     RDKit          2D

 14 15  0  0  0  0  0  0  0  0999 V2000
   -0.0000    2.6786    0.0000 C   0  0  0  0  0  0  0  0  0  0  0  0
   -0.0000    1.1786    0.0000 P   0  0  0  0  0  0  0  0  0  0  0  0
    1.2990    0.4286    0.0000 C   0  0  0  0  0  0  0  0  0  0  0  0
    1.2990   -1.0714    0.0000 C   0  0  0  0  0  0  0  0  0  0  0  0
    2.5981   -1.8214    0.0000 C   0  0  0  0  0  0  0  0  0  0  0  0
    3.8971   -1.0714    0.0000 C   0  0  0  0  0  0  0  0  0  0  0  0
    3.8971    0.4286    0.0000 C   0  0  0  0  0  0  0  0  0  0  0  0
    2.5981    1.1786    0.0000 C   0  0  0  0  0  0  0  0  0  0  0  0
   -1.2990    0.4286    0.0000 C   0  0  0  0  0  0  0  0  0  0  0  0
   -2.5981    1.1786    0.0000 C   0  0  0  0  0  0  0  0  0  0  0  0
   -3.8971    0.4286    0.0000 C   0  0  0  0  0  0  0  0  0  0  0  0
   -3.8971   -1.0714    0.0000 C   0  0  0  0  0  0  0  0  0  0  0  0
   -2.5981   -1.8214    0.0000 C   0  0  0  0  0  0  0  0  0  0  0  0
   -1.2990   -1.0714    0.0000 C   0  0  0  0  0  0  0  0  0  0  0  0
  1  2  1  0
  2  3  1  0
  3  4  2  0
  4  5  1  0
  5  6  2  0
  6  7  1  0
  7  8  2  0
  2  9  1  0
  9 10  2  0
 10 11  1  0
 11 12  2  0
 12 13  1  0
 13 14  2  0
  8  3  1  0
 14  9  1  0
M  END
>  <linear_selectivity>  (789) 
35

>  <denticity>  (789) 
2

>  <ligand_class>  (789) 
diphosphine

$$$$
dppm_100C_toluene
     RDKit          2D

 14 15  0  0  0  0  0  0  0  0999 V2000
   -0.0000    2.6786    0.0000 C   0  0  0  0  0  0  0  0  0  0  0  0
   -0.0000    1.1786    0.0000 P   0  0  0  0  0  0  0  0  0  0  0  0
    1.2990    0.4286    0.0000 C   0  0  0  0  0  0  0  0  0  0  0  0
    1.2990   -1.0714    0.0000 C   0  0  0  0  0  0  0  0  0  0  0  0
    2.5981   -1.8214    0.0000 C   0  0  0  0  0  0  0  0  0  0  0  0
    3.8971   -1.0714    0.0000 C   0  0  0  0  0  0  0  0  0  0  0  0
    3.8971    0.4286    0.0000 C   0  0  0  0  0  0  0  0  0  0  0  0
    2.5981    1.1786    0.0000 C   0  0  0  0  0  0  0  0  0  0  0  0
   -1.2990    0.4286    0.0000 C   0  0  0  0  0  0  0  0  0  0  0  0
   -2.5981    1.1786    0.0000 C   0  0  0  0  0  0  0  0  0  0  0  0
   -3.8971    0.4286    0.0000 C   0  0  0  0  0  0  0  0  0  0  0  0
   -3.8971   -1.0714    0.0000 C   0  0  0  0  0  0  0  0  0  0  0  0
   -2.5981   -1.8214    0.0000 C   0  0  0  0  0  0  0  0  0  0  0  0
   -1.2990   -1.0714    0.0000 C   0  0  0  0  0  0  0  0  0  0  0  0
  1  2  1  0
  2  3  1  0
  3  4  2  0
  4  5  1  0
  5  6  2  0
  6  7  1  0
  7  8  2  0
  2  9  1  0
  9 10  2  0
 10 11  1  0
 11 12  2  0
 12 13  1  0
 13 14  2  0
  8  3  1  0
 14  9  1  0
M  END
>  <linear_selectivity>  (790) 
33

>  <denticity>  (790) 
2

>  <ligand_class>  (790) 
diphosphine

$$$$
dppm_100C_THF
     RDKit          2D

 14 15  0  0  0  0  0  0  0  0999 V2000
   -0.0000    2.6786    0.0000 C   0  0  0  0  0  0  0  0  0  0  0  0
   -0.0000    1.1786    0.0000 P   0  0  0  0  0  0  0  0  0  0  0  0
    1.2990    0.4286    0.0000 C   0  0  0  0  0  0  0  0  0  0  0  0
    1.2990   -1.0714    0.0000 C   0  0  0  0  0  0  0  0  0  0  0  0
    2.5981   -1.8214    0.0000 C   0  0  0  0  0  0  0  0  0  0  0  0
    3.8971   -1.0714    0.0000 C   0  0  0  0  0  0  0  0  0  0  0  0
    3.8971    0.4286    0.0000 C   0  0  0  0  0  0  0  0  0  0  0  0
    2.5981    1.1786    0.0000 C   0  0  0  0  0  0  0  0  0  0  0  0
   -1.2990    0.4286    0.0000 C   0  0  0  0  0  0  0  0  0  0  0  0
   -2.5981    1.1786    0.0000 C   0  0  0  0  0  0  0  0  0  0  0  0
   -3.8971    0.4286    0.0000 C   0  0  0  0  0  0  0  0  0  0  0  0
   -3.8971   -1.0714    0.0000 C   0  0  0  0  0  0  0  0  0  0  0  0
   -2.5981   -1.8214    0.0000 C   0  0  0  0  0  0  0  0  0  0  0  0
   -1.2990   -1.0714    0.0000 C   0  0  0  0  0  0  0  0  0  0  0  0
  1  2  1  0
  2  3  1  0
  3  4  2  0
  4  5  1  0
  5  6  2  0
  6  7  1  0
  7  8  2  0
  2  9  1  0
  9 10  2  0
 10 11  1  0
 11 12  2  0
 12 13  1  0
 13 14  2  0
  8  3  1  0
 14  9  1  0
M  END
>  <linear_selectivity>  (791) 
33

>  <denticity>  (791) 
2

>  <ligand_class>  (791) 
diphosphine

$$$$
dppm_100C_dioxane
     RDKit          2D

 14 15  0  0  0  0  0  0  0  0999 V2000
   -0.0000    2.6786    0.0000 C   0  0  0  0  0  0  0  0  0  0  0  0
   -0.0000    1.1786    0.0000 P   0  0  0  0  0  0  0  0  0  0  0  0
    1.2990    0.4286    0.0000 C   0  0  0  0  0  0  0  0  0  0  0  0
    1.2990   -1.0714    0.0000 C   0  0  0  0  0  0  0  0  0  0  0  0
    2.5981   -1.8214    0.0000 C   0  0  0  0  0  0  0  0  0  0  0  0
    3.8971   -1.0714    0.0000 C   0  0  0  0  0  0  0  0  0  0  0  0
    3.8971    0.4286    0.0000 C   0  0  0  0  0  0  0  0  0  0  0  0
    2.5981    1.1786    0.0000 C   0  0  0  0  0  0  0  0  0  0  0  0
   -1.2990    0.4286    0.0000 C   0  0  0  0  0  0  0  0  0  0  0  0
   -2.5981    1.1786    0.0000 C   0  0  0  0  0  0  0  0  0  0  0  0
   -3.8971    0.4286    0.0000 C   0  0  0  0  0  0  0  0  0  0  0  0
   -3.8971   -1.0714    0.0000 C   0  0  0  0  0  0  0  0  0  0  0  0
   -2.5981   -1.8214    0.0000 C   0  0  0  0  0  0  0  0  0  0  0  0
   -1.2990   -1.0714    0.0000 C   0  0  0  0  0  0  0  0  0  0  0  0
  1  2  1  0
  2  3  1  0
  3  4  2  0
  4  5  1  0
  5  6  2  0
  6  7  1  0
  7  8  2  0
  2  9  1  0
  9 10  2  0
 10 11  1  0
 11 12  2  0
 12 13  1  0
 13 14  2  0
  8  3  1  0
 14  9  1  0
M  END
>  <linear_selectivity>  (792) 
32

>  <denticity>  (792) 
2

>  <ligand_class>  (792) 
diphosphine

$$$$
dppm_100C_hexane
     RDKit          2D

 14 15  0  0  0  0  0  0  0  0999 V2000
   -0.0000    2.6786    0.0000 C   0  0  0  0  0  0  0  0  0  0  0  0
   -0.0000    1.1786    0.0000 P   0  0  0  0  0  0  0  0  0  0  0  0
    1.2990    0.4286    0.0000 C   0  0  0  0  0  0  0  0  0  0  0  0
    1.2990   -1.0714    0.0000 C   0  0  0  0  0  0  0  0  0  0  0  0
    2.5981   -1.8214    0.0000 C   0  0  0  0  0  0  0  0  0  0  0  0
    3.8971   -1.0714    0.0000 C   0  0  0  0  0  0  0  0  0  0  0  0
    3.8971    0.4286    0.0000 C   0  0  0  0  0  0  0  0  0  0  0  0
    2.5981    1.1786    0.0000 C   0  0  0  0  0  0  0  0  0  0  0  0
   -1.2990    0.4286    0.0000 C   0  0  0  0  0  0  0  0  0  0  0  0
   -2.5981    1.1786    0.0000 C   0  0  0  0  0  0  0  0  0  0  0  0
   -3.8971    0.4286    0.0000 C   0  0  0  0  0  0  0  0  0  0  0  0
   -3.8971   -1.0714    0.0000 C   0  0  0  0  0  0  0  0  0  0  0  0
   -2.5981   -1.8214    0.0000 C   0  0  0  0  0  0  0  0  0  0  0  0
   -1.2990   -1.0714    0.0000 C   0  0  0  0  0  0  0  0  0  0  0  0
  1  2  1  0
  2  3  1  0
  3  4  2  0
  4  5  1  0
  5  6  2  0
  6  7  1  0
  7  8  2  0
  2  9  1  0
  9 10  2  0
 10 11  1  0
 11 12  2  0
 12 13  1  0
 13 14  2  0
  8  3  1  0
 14  9  1  0
M  END
>  <linear_selectivity>  (793) 
35

>  <denticity>  (793) 
2

>  <ligand_class>  (793) 
diphosphine

$$$$
dppm_100C_xylene
     RDKit          2D

 14 15  0  0  0  0  0  0  0  0999 V2000
   -0.0000    2.6786    0.0000 C   0  0  0  0  0  0  0  0  0  0  0  0
   -0.0000    1.1786    0.0000 P   0  0  0  0  0  0  0  0  0  0  0  0
    1.2990    0.4286    0.0000 C   0  0  0  0  0  0  0  0  0  0  0  0
    1.2990   -1.0714    0.0000 C   0  0  0  0  0  0  0  0  0  0  0  0
    2.5981   -1.8214    0.0000 C   0  0  0  0  0  0  0  0  0  0  0  0
    3.8971   -1.0714    0.0000 C   0  0  0  0  0  0  0  0  0  0  0  0
    3.8971    0.4286    0.0000 C   0  0  0  0  0  0  0  0  0  0  0  0
    2.5981    1.1786    0.0000 C   0  0  0  0  0  0  0  0  0  0  0  0
   -1.2990    0.4286    0.0000 C   0  0  0  0  0  0  0  0  0  0  0  0
   -2.5981    1.1786    0.0000 C   0  0  0  0  0  0  0  0  0  0  0  0
   -3.8971    0.4286    0.0000 C   0  0  0  0  0  0  0  0  0  0  0  0
   -3.8971   -1.0714    0.0000 C   0  0  0  0  0  0  0  0  0  0  0  0
   -2.5981   -1.8214    0.0000 C   0  0  0  0  0  0  0  0  0  0  0  0
   -1.2990   -1.0714    0.0000 C   0  0  0  0  0  0  0  0  0  0  0  0
  1  2  1  0
  2  3  1  0
  3  4  2  0
  4  5  1  0
  5  6  2  0
  6  7  1  0
  7  8  2  0
  2  9  1  0
  9 10  2  0
 10 11  1  0
 11 12  2  0
 12 13  1  0
 13 14  2  0
  8  3  1  0
 14  9  1  0
M  END
>  <linear_selectivity>  (794) 
30

>  <denticity>  (794) 
2

>  <ligand_class>  (794) 
diphosphine

$$$$
dppm_110C_toluene
     RDKit          2D

 14 15  0  0  0  0  0  0  0  0999 V2000
   -0.0000    2.6786    0.0000 C   0  0  0  0  0  0  0  0  0  0  0  0
   -0.0000    1.1786    0.0000 P   0  0  0  0  0  0  0  0  0  0  0  0
    1.2990    0.4286    0.0000 C   0  0  0  0  0  0  0  0  0  0  0  0
    1.2990   -1.0714    0.0000 C   0  0  0  0  0  0  0  0  0  0  0  0
    2.5981   -1.8214    0.0000 C   0  0  0  0  0  0  0  0  0  0  0  0
    3.8971   -1.0714    0.0000 C   0  0  0  0  0  0  0  0  0  0  0  0
    3.8971    0.4286    0.0000 C   0  0  0  0  0  0  0  0  0  0  0  0
    2.5981    1.1786    0.0000 C   0  0  0  0  0  0  0  0  0  0  0  0
   -1.2990    0.4286    0.0000 C   0  0  0  0  0  0  0  0  0  0  0  0
   -2.5981    1.1786    0.0000 C   0  0  0  0  0  0  0  0  0  0  0  0
   -3.8971    0.4286    0.0000 C   0  0  0  0  0  0  0  0  0  0  0  0
   -3.8971   -1.0714    0.0000 C   0  0  0  0  0  0  0  0  0  0  0  0
   -2.5981   -1.8214    0.0000 C   0  0  0  0  0  0  0  0  0  0  0  0
   -1.2990   -1.0714    0.0000 C   0  0  0  0  0  0  0  0  0  0  0  0
  1  2  1  0
  2  3  1  0
  3  4  2  0
  4  5  1  0
  5  6  2  0
  6  7  1  0
  7  8  2  0
  2  9  1  0
  9 10  2  0
 10 11  1  0
 11 12  2  0
 12 13  1  0
 13 14  2  0
  8  3  1  0
 14  9  1  0
M  END
>  <linear_selectivity>  (795) 
30

>  <denticity>  (795) 
2

>  <ligand_class>  (795) 
diphosphine

$$$$
dppm_110C_THF
     RDKit          2D

 14 15  0  0  0  0  0  0  0  0999 V2000
   -0.0000    2.6786    0.0000 C   0  0  0  0  0  0  0  0  0  0  0  0
   -0.0000    1.1786    0.0000 P   0  0  0  0  0  0  0  0  0  0  0  0
    1.2990    0.4286    0.0000 C   0  0  0  0  0  0  0  0  0  0  0  0
    1.2990   -1.0714    0.0000 C   0  0  0  0  0  0  0  0  0  0  0  0
    2.5981   -1.8214    0.0000 C   0  0  0  0  0  0  0  0  0  0  0  0
    3.8971   -1.0714    0.0000 C   0  0  0  0  0  0  0  0  0  0  0  0
    3.8971    0.4286    0.0000 C   0  0  0  0  0  0  0  0  0  0  0  0
    2.5981    1.1786    0.0000 C   0  0  0  0  0  0  0  0  0  0  0  0
   -1.2990    0.4286    0.0000 C   0  0  0  0  0  0  0  0  0  0  0  0
   -2.5981    1.1786    0.0000 C   0  0  0  0  0  0  0  0  0  0  0  0
   -3.8971    0.4286    0.0000 C   0  0  0  0  0  0  0  0  0  0  0  0
   -3.8971   -1.0714    0.0000 C   0  0  0  0  0  0  0  0  0  0  0  0
   -2.5981   -1.8214    0.0000 C   0  0  0  0  0  0  0  0  0  0  0  0
   -1.2990   -1.0714    0.0000 C   0  0  0  0  0  0  0  0  0  0  0  0
  1  2  1  0
  2  3  1  0
  3  4  2  0
  4  5  1  0
  5  6  2  0
  6  7  1  0
  7  8  2  0
  2  9  1  0
  9 10  2  0
 10 11  1  0
 11 12  2  0
 12 13  1  0
 13 14  2  0
  8  3  1  0
 14  9  1  0
M  END
>  <linear_selectivity>  (796) 
29

>  <denticity>  (796) 
2

>  <ligand_class>  (796) 
diphosphine

$$$$
dppm_110C_dioxane
     RDKit          2D

 14 15  0  0  0  0  0  0  0  0999 V2000
   -0.0000    2.6786    0.0000 C   0  0  0  0  0  0  0  0  0  0  0  0
   -0.0000    1.1786    0.0000 P   0  0  0  0  0  0  0  0  0  0  0  0
    1.2990    0.4286    0.0000 C   0  0  0  0  0  0  0  0  0  0  0  0
    1.2990   -1.0714    0.0000 C   0  0  0  0  0  0  0  0  0  0  0  0
    2.5981   -1.8214    0.0000 C   0  0  0  0  0  0  0  0  0  0  0  0
    3.8971   -1.0714    0.0000 C   0  0  0  0  0  0  0  0  0  0  0  0
    3.8971    0.4286    0.0000 C   0  0  0  0  0  0  0  0  0  0  0  0
    2.5981    1.1786    0.0000 C   0  0  0  0  0  0  0  0  0  0  0  0
   -1.2990    0.4286    0.0000 C   0  0  0  0  0  0  0  0  0  0  0  0
   -2.5981    1.1786    0.0000 C   0  0  0  0  0  0  0  0  0  0  0  0
   -3.8971    0.4286    0.0000 C   0  0  0  0  0  0  0  0  0  0  0  0
   -3.8971   -1.0714    0.0000 C   0  0  0  0  0  0  0  0  0  0  0  0
   -2.5981   -1.8214    0.0000 C   0  0  0  0  0  0  0  0  0  0  0  0
   -1.2990   -1.0714    0.0000 C   0  0  0  0  0  0  0  0  0  0  0  0
  1  2  1  0
  2  3  1  0
  3  4  2  0
  4  5  1  0
  5  6  2  0
  6  7  1  0
  7  8  2  0
  2  9  1  0
  9 10  2  0
 10 11  1  0
 11 12  2  0
 12 13  1  0
 13 14  2  0
  8  3  1  0
 14  9  1  0
M  END
>  <linear_selectivity>  (797) 
30

>  <denticity>  (797) 
2

>  <ligand_class>  (797) 
diphosphine

$$$$
dppm_110C_hexane
     RDKit          2D

 14 15  0  0  0  0  0  0  0  0999 V2000
   -0.0000    2.6786    0.0000 C   0  0  0  0  0  0  0  0  0  0  0  0
   -0.0000    1.1786    0.0000 P   0  0  0  0  0  0  0  0  0  0  0  0
    1.2990    0.4286    0.0000 C   0  0  0  0  0  0  0  0  0  0  0  0
    1.2990   -1.0714    0.0000 C   0  0  0  0  0  0  0  0  0  0  0  0
    2.5981   -1.8214    0.0000 C   0  0  0  0  0  0  0  0  0  0  0  0
    3.8971   -1.0714    0.0000 C   0  0  0  0  0  0  0  0  0  0  0  0
    3.8971    0.4286    0.0000 C   0  0  0  0  0  0  0  0  0  0  0  0
    2.5981    1.1786    0.0000 C   0  0  0  0  0  0  0  0  0  0  0  0
   -1.2990    0.4286    0.0000 C   0  0  0  0  0  0  0  0  0  0  0  0
   -2.5981    1.1786    0.0000 C   0  0  0  0  0  0  0  0  0  0  0  0
   -3.8971    0.4286    0.0000 C   0  0  0  0  0  0  0  0  0  0  0  0
   -3.8971   -1.0714    0.0000 C   0  0  0  0  0  0  0  0  0  0  0  0
   -2.5981   -1.8214    0.0000 C   0  0  0  0  0  0  0  0  0  0  0  0
   -1.2990   -1.0714    0.0000 C   0  0  0  0  0  0  0  0  0  0  0  0
  1  2  1  0
  2  3  1  0
  3  4  2  0
  4  5  1  0
  5  6  2  0
  6  7  1  0
  7  8  2  0
  2  9  1  0
  9 10  2  0
 10 11  1  0
 11 12  2  0
 12 13  1  0
 13 14  2  0
  8  3  1  0
 14  9  1  0
M  END
>  <linear_selectivity>  (798) 
34

>  <denticity>  (798) 
2

>  <ligand_class>  (798) 
diphosphine

$$$$
dppm_110C_benzene
     RDKit          2D

 14 15  0  0  0  0  0  0  0  0999 V2000
   -0.0000    2.6786    0.0000 C   0  0  0  0  0  0  0  0  0  0  0  0
   -0.0000    1.1786    0.0000 P   0  0  0  0  0  0  0  0  0  0  0  0
    1.2990    0.4286    0.0000 C   0  0  0  0  0  0  0  0  0  0  0  0
    1.2990   -1.0714    0.0000 C   0  0  0  0  0  0  0  0  0  0  0  0
    2.5981   -1.8214    0.0000 C   0  0  0  0  0  0  0  0  0  0  0  0
    3.8971   -1.0714    0.0000 C   0  0  0  0  0  0  0  0  0  0  0  0
    3.8971    0.4286    0.0000 C   0  0  0  0  0  0  0  0  0  0  0  0
    2.5981    1.1786    0.0000 C   0  0  0  0  0  0  0  0  0  0  0  0
   -1.2990    0.4286    0.0000 C   0  0  0  0  0  0  0  0  0  0  0  0
   -2.5981    1.1786    0.0000 C   0  0  0  0  0  0  0  0  0  0  0  0
   -3.8971    0.4286    0.0000 C   0  0  0  0  0  0  0  0  0  0  0  0
   -3.8971   -1.0714    0.0000 C   0  0  0  0  0  0  0  0  0  0  0  0
   -2.5981   -1.8214    0.0000 C   0  0  0  0  0  0  0  0  0  0  0  0
   -1.2990   -1.0714    0.0000 C   0  0  0  0  0  0  0  0  0  0  0  0
  1  2  1  0
  2  3  1  0
  3  4  2  0
  4  5  1  0
  5  6  2  0
  6  7  1  0
  7  8  2  0
  2  9  1  0
  9 10  2  0
 10 11  1  0
 11 12  2  0
 12 13  1  0
 13 14  2  0
  8  3  1  0
 14  9  1  0
M  END
>  <linear_selectivity>  (799) 
31

>  <denticity>  (799) 
2

>  <ligand_class>  (799) 
diphosphine

$$$$
dppm_110C_xylene
     RDKit          2D

 14 15  0  0  0  0  0  0  0  0999 V2000
   -0.0000    2.6786    0.0000 C   0  0  0  0  0  0  0  0  0  0  0  0
   -0.0000    1.1786    0.0000 P   0  0  0  0  0  0  0  0  0  0  0  0
    1.2990    0.4286    0.0000 C   0  0  0  0  0  0  0  0  0  0  0  0
    1.2990   -1.0714    0.0000 C   0  0  0  0  0  0  0  0  0  0  0  0
    2.5981   -1.8214    0.0000 C   0  0  0  0  0  0  0  0  0  0  0  0
    3.8971   -1.0714    0.0000 C   0  0  0  0  0  0  0  0  0  0  0  0
    3.8971    0.4286    0.0000 C   0  0  0  0  0  0  0  0  0  0  0  0
    2.5981    1.1786    0.0000 C   0  0  0  0  0  0  0  0  0  0  0  0
   -1.2990    0.4286    0.0000 C   0  0  0  0  0  0  0  0  0  0  0  0
   -2.5981    1.1786    0.0000 C   0  0  0  0  0  0  0  0  0  0  0  0
   -3.8971    0.4286    0.0000 C   0  0  0  0  0  0  0  0  0  0  0  0
   -3.8971   -1.0714    0.0000 C   0  0  0  0  0  0  0  0  0  0  0  0
   -2.5981   -1.8214    0.0000 C   0  0  0  0  0  0  0  0  0  0  0  0
   -1.2990   -1.0714    0.0000 C   0  0  0  0  0  0  0  0  0  0  0  0
  1  2  1  0
  2  3  1  0
  3  4  2  0
  4  5  1  0
  5  6  2  0
  6  7  1  0
  7  8  2  0
  2  9  1  0
  9 10  2  0
 10 11  1  0
 11 12  2  0
 12 13  1  0
 13 14  2  0
  8  3  1  0
 14  9  1  0
M  END
>  <linear_selectivity>  (800) 
35

>  <denticity>  (800) 
2

>  <ligand_class>  (800) 
diphosphine

$$$$
dppm_120C_toluene
     RDKit          2D

 14 15  0  0  0  0  0  0  0  0999 V2000
   -0.0000    2.6786    0.0000 C   0  0  0  0  0  0  0  0  0  0  0  0
   -0.0000    1.1786    0.0000 P   0  0  0  0  0  0  0  0  0  0  0  0
    1.2990    0.4286    0.0000 C   0  0  0  0  0  0  0  0  0  0  0  0
    1.2990   -1.0714    0.0000 C   0  0  0  0  0  0  0  0  0  0  0  0
    2.5981   -1.8214    0.0000 C   0  0  0  0  0  0  0  0  0  0  0  0
    3.8971   -1.0714    0.0000 C   0  0  0  0  0  0  0  0  0  0  0  0
    3.8971    0.4286    0.0000 C   0  0  0  0  0  0  0  0  0  0  0  0
    2.5981    1.1786    0.0000 C   0  0  0  0  0  0  0  0  0  0  0  0
   -1.2990    0.4286    0.0000 C   0  0  0  0  0  0  0  0  0  0  0  0
   -2.5981    1.1786    0.0000 C   0  0  0  0  0  0  0  0  0  0  0  0
   -3.8971    0.4286    0.0000 C   0  0  0  0  0  0  0  0  0  0  0  0
   -3.8971   -1.0714    0.0000 C   0  0  0  0  0  0  0  0  0  0  0  0
   -2.5981   -1.8214    0.0000 C   0  0  0  0  0  0  0  0  0  0  0  0
   -1.2990   -1.0714    0.0000 C   0  0  0  0  0  0  0  0  0  0  0  0
  1  2  1  0
  2  3  1  0
  3  4  2  0
  4  5  1  0
  5  6  2  0
  6  7  1  0
  7  8  2  0
  2  9  1  0
  9 10  2  0
 10 11  1  0
 11 12  2  0
 12 13  1  0
 13 14  2  0
  8  3  1  0
 14  9  1  0
M  END
>  <linear_selectivity>  (801) 
26

>  <denticity>  (801) 
2

>  <ligand_class>  (801) 
diphosphine

$$$$
dppm_120C_THF
     RDKit          2D

 14 15  0  0  0  0  0  0  0  0999 V2000
   -0.0000    2.6786    0.0000 C   0  0  0  0  0  0  0  0  0  0  0  0
   -0.0000    1.1786    0.0000 P   0  0  0  0  0  0  0  0  0  0  0  0
    1.2990    0.4286    0.0000 C   0  0  0  0  0  0  0  0  0  0  0  0
    1.2990   -1.0714    0.0000 C   0  0  0  0  0  0  0  0  0  0  0  0
    2.5981   -1.8214    0.0000 C   0  0  0  0  0  0  0  0  0  0  0  0
    3.8971   -1.0714    0.0000 C   0  0  0  0  0  0  0  0  0  0  0  0
    3.8971    0.4286    0.0000 C   0  0  0  0  0  0  0  0  0  0  0  0
    2.5981    1.1786    0.0000 C   0  0  0  0  0  0  0  0  0  0  0  0
   -1.2990    0.4286    0.0000 C   0  0  0  0  0  0  0  0  0  0  0  0
   -2.5981    1.1786    0.0000 C   0  0  0  0  0  0  0  0  0  0  0  0
   -3.8971    0.4286    0.0000 C   0  0  0  0  0  0  0  0  0  0  0  0
   -3.8971   -1.0714    0.0000 C   0  0  0  0  0  0  0  0  0  0  0  0
   -2.5981   -1.8214    0.0000 C   0  0  0  0  0  0  0  0  0  0  0  0
   -1.2990   -1.0714    0.0000 C   0  0  0  0  0  0  0  0  0  0  0  0
  1  2  1  0
  2  3  1  0
  3  4  2  0
  4  5  1  0
  5  6  2  0
  6  7  1  0
  7  8  2  0
  2  9  1  0
  9 10  2  0
 10 11  1  0
 11 12  2  0
 12 13  1  0
 13 14  2  0
  8  3  1  0
 14  9  1  0
M  END
>  <linear_selectivity>  (802) 
28

>  <denticity>  (802) 
2

>  <ligand_class>  (802) 
diphosphine

$$$$
dppm_120C_dioxane
     RDKit          2D

 14 15  0  0  0  0  0  0  0  0999 V2000
   -0.0000    2.6786    0.0000 C   0  0  0  0  0  0  0  0  0  0  0  0
   -0.0000    1.1786    0.0000 P   0  0  0  0  0  0  0  0  0  0  0  0
    1.2990    0.4286    0.0000 C   0  0  0  0  0  0  0  0  0  0  0  0
    1.2990   -1.0714    0.0000 C   0  0  0  0  0  0  0  0  0  0  0  0
    2.5981   -1.8214    0.0000 C   0  0  0  0  0  0  0  0  0  0  0  0
    3.8971   -1.0714    0.0000 C   0  0  0  0  0  0  0  0  0  0  0  0
    3.8971    0.4286    0.0000 C   0  0  0  0  0  0  0  0  0  0  0  0
    2.5981    1.1786    0.0000 C   0  0  0  0  0  0  0  0  0  0  0  0
   -1.2990    0.4286    0.0000 C   0  0  0  0  0  0  0  0  0  0  0  0
   -2.5981    1.1786    0.0000 C   0  0  0  0  0  0  0  0  0  0  0  0
   -3.8971    0.4286    0.0000 C   0  0  0  0  0  0  0  0  0  0  0  0
   -3.8971   -1.0714    0.0000 C   0  0  0  0  0  0  0  0  0  0  0  0
   -2.5981   -1.8214    0.0000 C   0  0  0  0  0  0  0  0  0  0  0  0
   -1.2990   -1.0714    0.0000 C   0  0  0  0  0  0  0  0  0  0  0  0
  1  2  1  0
  2  3  1  0
  3  4  2  0
  4  5  1  0
  5  6  2  0
  6  7  1  0
  7  8  2  0
  2  9  1  0
  9 10  2  0
 10 11  1  0
 11 12  2  0
 12 13  1  0
 13 14  2  0
  8  3  1  0
 14  9  1  0
M  END
>  <linear_selectivity>  (803) 
30

>  <denticity>  (803) 
2

>  <ligand_class>  (803) 
diphosphine

$$$$
dppm_120C_hexane
     RDKit          2D

 14 15  0  0  0  0  0  0  0  0999 V2000
   -0.0000    2.6786    0.0000 C   0  0  0  0  0  0  0  0  0  0  0  0
   -0.0000    1.1786    0.0000 P   0  0  0  0  0  0  0  0  0  0  0  0
    1.2990    0.4286    0.0000 C   0  0  0  0  0  0  0  0  0  0  0  0
    1.2990   -1.0714    0.0000 C   0  0  0  0  0  0  0  0  0  0  0  0
    2.5981   -1.8214    0.0000 C   0  0  0  0  0  0  0  0  0  0  0  0
    3.8971   -1.0714    0.0000 C   0  0  0  0  0  0  0  0  0  0  0  0
    3.8971    0.4286    0.0000 C   0  0  0  0  0  0  0  0  0  0  0  0
    2.5981    1.1786    0.0000 C   0  0  0  0  0  0  0  0  0  0  0  0
   -1.2990    0.4286    0.0000 C   0  0  0  0  0  0  0  0  0  0  0  0
   -2.5981    1.1786    0.0000 C   0  0  0  0  0  0  0  0  0  0  0  0
   -3.8971    0.4286    0.0000 C   0  0  0  0  0  0  0  0  0  0  0  0
   -3.8971   -1.0714    0.0000 C   0  0  0  0  0  0  0  0  0  0  0  0
   -2.5981   -1.8214    0.0000 C   0  0  0  0  0  0  0  0  0  0  0  0
   -1.2990   -1.0714    0.0000 C   0  0  0  0  0  0  0  0  0  0  0  0
  1  2  1  0
  2  3  1  0
  3  4  2  0
  4  5  1  0
  5  6  2  0
  6  7  1  0
  7  8  2  0
  2  9  1  0
  9 10  2  0
 10 11  1  0
 11 12  2  0
 12 13  1  0
 13 14  2  0
  8  3  1  0
 14  9  1  0
M  END
>  <linear_selectivity>  (804) 
33

>  <denticity>  (804) 
2

>  <ligand_class>  (804) 
diphosphine

$$$$
dppm_120C_benzene
     RDKit          2D

 14 15  0  0  0  0  0  0  0  0999 V2000
   -0.0000    2.6786    0.0000 C   0  0  0  0  0  0  0  0  0  0  0  0
   -0.0000    1.1786    0.0000 P   0  0  0  0  0  0  0  0  0  0  0  0
    1.2990    0.4286    0.0000 C   0  0  0  0  0  0  0  0  0  0  0  0
    1.2990   -1.0714    0.0000 C   0  0  0  0  0  0  0  0  0  0  0  0
    2.5981   -1.8214    0.0000 C   0  0  0  0  0  0  0  0  0  0  0  0
    3.8971   -1.0714    0.0000 C   0  0  0  0  0  0  0  0  0  0  0  0
    3.8971    0.4286    0.0000 C   0  0  0  0  0  0  0  0  0  0  0  0
    2.5981    1.1786    0.0000 C   0  0  0  0  0  0  0  0  0  0  0  0
   -1.2990    0.4286    0.0000 C   0  0  0  0  0  0  0  0  0  0  0  0
   -2.5981    1.1786    0.0000 C   0  0  0  0  0  0  0  0  0  0  0  0
   -3.8971    0.4286    0.0000 C   0  0  0  0  0  0  0  0  0  0  0  0
   -3.8971   -1.0714    0.0000 C   0  0  0  0  0  0  0  0  0  0  0  0
   -2.5981   -1.8214    0.0000 C   0  0  0  0  0  0  0  0  0  0  0  0
   -1.2990   -1.0714    0.0000 C   0  0  0  0  0  0  0  0  0  0  0  0
  1  2  1  0
  2  3  1  0
  3  4  2  0
  4  5  1  0
  5  6  2  0
  6  7  1  0
  7  8  2  0
  2  9  1  0
  9 10  2  0
 10 11  1  0
 11 12  2  0
 12 13  1  0
 13 14  2  0
  8  3  1  0
 14  9  1  0
M  END
>  <linear_selectivity>  (805) 
31

>  <denticity>  (805) 
2

>  <ligand_class>  (805) 
diphosphine

$$$$
dppm_120C_xylene
     RDKit          2D

 14 15  0  0  0  0  0  0  0  0999 V2000
   -0.0000    2.6786    0.0000 C   0  0  0  0  0  0  0  0  0  0  0  0
   -0.0000    1.1786    0.0000 P   0  0  0  0  0  0  0  0  0  0  0  0
    1.2990    0.4286    0.0000 C   0  0  0  0  0  0  0  0  0  0  0  0
    1.2990   -1.0714    0.0000 C   0  0  0  0  0  0  0  0  0  0  0  0
    2.5981   -1.8214    0.0000 C   0  0  0  0  0  0  0  0  0  0  0  0
    3.8971   -1.0714    0.0000 C   0  0  0  0  0  0  0  0  0  0  0  0
    3.8971    0.4286    0.0000 C   0  0  0  0  0  0  0  0  0  0  0  0
    2.5981    1.1786    0.0000 C   0  0  0  0  0  0  0  0  0  0  0  0
   -1.2990    0.4286    0.0000 C   0  0  0  0  0  0  0  0  0  0  0  0
   -2.5981    1.1786    0.0000 C   0  0  0  0  0  0  0  0  0  0  0  0
   -3.8971    0.4286    0.0000 C   0  0  0  0  0  0  0  0  0  0  0  0
   -3.8971   -1.0714    0.0000 C   0  0  0  0  0  0  0  0  0  0  0  0
   -2.5981   -1.8214    0.0000 C   0  0  0  0  0  0  0  0  0  0  0  0
   -1.2990   -1.0714    0.0000 C   0  0  0  0  0  0  0  0  0  0  0  0
  1  2  1  0
  2  3  1  0
  3  4  2  0
  4  5  1  0
  5  6  2  0
  6  7  1  0
  7  8  2  0
  2  9  1  0
  9 10  2  0
 10 11  1  0
 11 12  2  0
 12 13  1  0
 13 14  2  0
  8  3  1  0
 14  9  1  0
M  END
>  <linear_selectivity>  (806) 
28

>  <denticity>  (806) 
2

>  <ligand_class>  (806) 
diphosphine

$$$$
dppm_130C_THF
     RDKit          2D

 14 15  0  0  0  0  0  0  0  0999 V2000
   -0.0000    2.6786    0.0000 C   0  0  0  0  0  0  0  0  0  0  0  0
   -0.0000    1.1786    0.0000 P   0  0  0  0  0  0  0  0  0  0  0  0
    1.2990    0.4286    0.0000 C   0  0  0  0  0  0  0  0  0  0  0  0
    1.2990   -1.0714    0.0000 C   0  0  0  0  0  0  0  0  0  0  0  0
    2.5981   -1.8214    0.0000 C   0  0  0  0  0  0  0  0  0  0  0  0
    3.8971   -1.0714    0.0000 C   0  0  0  0  0  0  0  0  0  0  0  0
    3.8971    0.4286    0.0000 C   0  0  0  0  0  0  0  0  0  0  0  0
    2.5981    1.1786    0.0000 C   0  0  0  0  0  0  0  0  0  0  0  0
   -1.2990    0.4286    0.0000 C   0  0  0  0  0  0  0  0  0  0  0  0
   -2.5981    1.1786    0.0000 C   0  0  0  0  0  0  0  0  0  0  0  0
   -3.8971    0.4286    0.0000 C   0  0  0  0  0  0  0  0  0  0  0  0
   -3.8971   -1.0714    0.0000 C   0  0  0  0  0  0  0  0  0  0  0  0
   -2.5981   -1.8214    0.0000 C   0  0  0  0  0  0  0  0  0  0  0  0
   -1.2990   -1.0714    0.0000 C   0  0  0  0  0  0  0  0  0  0  0  0
  1  2  1  0
  2  3  1  0
  3  4  2  0
  4  5  1  0
  5  6  2  0
  6  7  1  0
  7  8  2  0
  2  9  1  0
  9 10  2  0
 10 11  1  0
 11 12  2  0
 12 13  1  0
 13 14  2  0
  8  3  1  0
 14  9  1  0
M  END
>  <linear_selectivity>  (807) 
24

>  <denticity>  (807) 
2

>  <ligand_class>  (807) 
diphosphine

$$$$
dppm_130C_dioxane
     RDKit          2D

 14 15  0  0  0  0  0  0  0  0999 V2000
   -0.0000    2.6786    0.0000 C   0  0  0  0  0  0  0  0  0  0  0  0
   -0.0000    1.1786    0.0000 P   0  0  0  0  0  0  0  0  0  0  0  0
    1.2990    0.4286    0.0000 C   0  0  0  0  0  0  0  0  0  0  0  0
    1.2990   -1.0714    0.0000 C   0  0  0  0  0  0  0  0  0  0  0  0
    2.5981   -1.8214    0.0000 C   0  0  0  0  0  0  0  0  0  0  0  0
    3.8971   -1.0714    0.0000 C   0  0  0  0  0  0  0  0  0  0  0  0
    3.8971    0.4286    0.0000 C   0  0  0  0  0  0  0  0  0  0  0  0
    2.5981    1.1786    0.0000 C   0  0  0  0  0  0  0  0  0  0  0  0
   -1.2990    0.4286    0.0000 C   0  0  0  0  0  0  0  0  0  0  0  0
   -2.5981    1.1786    0.0000 C   0  0  0  0  0  0  0  0  0  0  0  0
   -3.8971    0.4286    0.0000 C   0  0  0  0  0  0  0  0  0  0  0  0
   -3.8971   -1.0714    0.0000 C   0  0  0  0  0  0  0  0  0  0  0  0
   -2.5981   -1.8214    0.0000 C   0  0  0  0  0  0  0  0  0  0  0  0
   -1.2990   -1.0714    0.0000 C   0  0  0  0  0  0  0  0  0  0  0  0
  1  2  1  0
  2  3  1  0
  3  4  2  0
  4  5  1  0
  5  6  2  0
  6  7  1  0
  7  8  2  0
  2  9  1  0
  9 10  2  0
 10 11  1  0
 11 12  2  0
 12 13  1  0
 13 14  2  0
  8  3  1  0
 14  9  1  0
M  END
>  <linear_selectivity>  (808) 
25

>  <denticity>  (808) 
2

>  <ligand_class>  (808) 
diphosphine

$$$$
dppe
     RDKit          2D

 28 31  0  0  0  0  0  0  0  0999 V2000
   -0.0000   -2.7857    0.0000 C   0  0  0  0  0  0  0  0  0  0  0  0
   -0.0000   -1.2857    0.0000 C   0  0  0  0  0  0  0  0  0  0  0  0
   -1.2990   -0.5357    0.0000 P   0  0  0  0  0  0  0  0  0  0  0  0
   -1.2990    0.9643    0.0000 C   0  0  0  0  0  0  0  0  0  0  0  0
    0.0000    1.7143    0.0000 C   0  0  0  0  0  0  0  0  0  0  0  0
    0.0000    3.2143    0.0000 C   0  0  0  0  0  0  0  0  0  0  0  0
   -1.2990    3.9643    0.0000 C   0  0  0  0  0  0  0  0  0  0  0  0
   -2.5981    3.2143    0.0000 C   0  0  0  0  0  0  0  0  0  0  0  0
   -2.5981    1.7143    0.0000 C   0  0  0  0  0  0  0  0  0  0  0  0
   -2.5981   -1.2857    0.0000 C   0  0  0  0  0  0  0  0  0  0  0  0
   -3.8971   -0.5357    0.0000 C   0  0  0  0  0  0  0  0  0  0  0  0
   -5.1962   -1.2857    0.0000 C   0  0  0  0  0  0  0  0  0  0  0  0
   -5.1962   -2.7857    0.0000 C   0  0  0  0  0  0  0  0  0  0  0  0
   -3.8971   -3.5357    0.0000 C   0  0  0  0  0  0  0  0  0  0  0  0
   -2.5981   -2.7857    0.0000 C   0  0  0  0  0  0  0  0  0  0  0  0
    1.2990   -0.5357    0.0000 P   0  0  0  0  0  0  0  0  0  0  0  0
    2.5981   -1.2857    0.0000 C   0  0  0  0  0  0  0  0  0  0  0  0
    2.5981   -2.7857    0.0000 C   0  0  0  0  0  0  0  0  0  0  0  0
    3.8971   -3.5357    0.0000 C   0  0  0  0  0  0  0  0  0  0  0  0
    5.1962   -2.7857    0.0000 C   0  0  0  0  0  0  0  0  0  0  0  0
    5.1962   -1.2857    0.0000 C   0  0  0  0  0  0  0  0  0  0  0  0
    3.8971   -0.5357    0.0000 C   0  0  0  0  0  0  0  0  0  0  0  0
    1.2990    0.9643    0.0000 C   0  0  0  0  0  0  0  0  0  0  0  0
    2.5981    1.7143    0.0000 C   0  0  0  0  0  0  0  0  0  0  0  0
    2.5981    3.2143    0.0000 C   0  0  0  0  0  0  0  0  0  0  0  0
    1.2990    3.9643    0.0000 C   0  0  0  0  0  0  0  0  0  0  0  0
    0.0000    3.2143    0.0000 C   0  0  0  0  0  0  0  0  0  0  0  0
    0.0000    1.7143    0.0000 C   0  0  0  0  0  0  0  0  0  0  0  0
  1  2  1  0
  2  3  1  0
  3  4  1  0
  4  5  2  0
  5  6  1  0
  6  7  2  0
  7  8  1  0
  8  9  2  0
  3 10  1  0
 10 11  2  0
 11 12  1  0
 12 13  2  0
 13 14  1  0
 14 15  2  0
  2 16  1  0
 16 17  1  0
 17 18  2  0
 18 19  1  0
 19 20  2  0
 20 21  1  0
 21 22  2  0
 16 23  1  0
 23 24  2  0
 24 25  1  0
 25 26  2  0
 26 27  1  0
 27 28  2  0
  9  4  1  0
 15 10  1  0
 22 17  1  0
 28 23  1  0
M  END
>  <linear_selectivity>  (809) 
45

>  <denticity>  (809) 
2

>  <ligand_class>  (809) 
diphosphine

$$$$
dppe_70C_toluene
     RDKit          2D

 28 31  0  0  0  0  0  0  0  0999 V2000
   -0.0000   -2.7857    0.0000 C   0  0  0  0  0  0  0  0  0  0  0  0
   -0.0000   -1.2857    0.0000 C   0  0  0  0  0  0  0  0  0  0  0  0
   -1.2990   -0.5357    0.0000 P   0  0  0  0  0  0  0  0  0  0  0  0
   -1.2990    0.9643    0.0000 C   0  0  0  0  0  0  0  0  0  0  0  0
    0.0000    1.7143    0.0000 C   0  0  0  0  0  0  0  0  0  0  0  0
    0.0000    3.2143    0.0000 C   0  0  0  0  0  0  0  0  0  0  0  0
   -1.2990    3.9643    0.0000 C   0  0  0  0  0  0  0  0  0  0  0  0
   -2.5981    3.2143    0.0000 C   0  0  0  0  0  0  0  0  0  0  0  0
   -2.5981    1.7143    0.0000 C   0  0  0  0  0  0  0  0  0  0  0  0
   -2.5981   -1.2857    0.0000 C   0  0  0  0  0  0  0  0  0  0  0  0
   -3.8971   -0.5357    0.0000 C   0  0  0  0  0  0  0  0  0  0  0  0
   -5.1962   -1.2857    0.0000 C   0  0  0  0  0  0  0  0  0  0  0  0
   -5.1962   -2.7857    0.0000 C   0  0  0  0  0  0  0  0  0  0  0  0
   -3.8971   -3.5357    0.0000 C   0  0  0  0  0  0  0  0  0  0  0  0
   -2.5981   -2.7857    0.0000 C   0  0  0  0  0  0  0  0  0  0  0  0
    1.2990   -0.5357    0.0000 P   0  0  0  0  0  0  0  0  0  0  0  0
    2.5981   -1.2857    0.0000 C   0  0  0  0  0  0  0  0  0  0  0  0
    2.5981   -2.7857    0.0000 C   0  0  0  0  0  0  0  0  0  0  0  0
    3.8971   -3.5357    0.0000 C   0  0  0  0  0  0  0  0  0  0  0  0
    5.1962   -2.7857    0.0000 C   0  0  0  0  0  0  0  0  0  0  0  0
    5.1962   -1.2857    0.0000 C   0  0  0  0  0  0  0  0  0  0  0  0
    3.8971   -0.5357    0.0000 C   0  0  0  0  0  0  0  0  0  0  0  0
    1.2990    0.9643    0.0000 C   0  0  0  0  0  0  0  0  0  0  0  0
    2.5981    1.7143    0.0000 C   0  0  0  0  0  0  0  0  0  0  0  0
    2.5981    3.2143    0.0000 C   0  0  0  0  0  0  0  0  0  0  0  0
    1.2990    3.9643    0.0000 C   0  0  0  0  0  0  0  0  0  0  0  0
    0.0000    3.2143    0.0000 C   0  0  0  0  0  0  0  0  0  0  0  0
    0.0000    1.7143    0.0000 C   0  0  0  0  0  0  0  0  0  0  0  0
  1  2  1  0
  2  3  1  0
  3  4  1  0
  4  5  2  0
  5  6  1  0
  6  7  2  0
  7  8  1  0
  8  9  2  0
  3 10  1  0
 10 11  2  0
 11 12  1  0
 12 13  2  0
 13 14  1  0
 14 15  2  0
  2 16  1  0
 16 17  1  0
 17 18  2  0
 18 19  1  0
 19 20  2  0
 20 21  1  0
 21 22  2  0
 16 23  1  0
 23 24  2  0
 24 25  1  0
 25 26  2  0
 26 27  1  0
 27 28  2  0
  9  4  1  0
 15 10  1  0
 22 17  1  0
 28 23  1  0
M  END
>  <linear_selectivity>  (810) 
51

>  <denticity>  (810) 
2

>  <ligand_class>  (810) 
diphosphine

$$$$
dppe_70C_benzene
     RDKit          2D

 28 31  0  0  0  0  0  0  0  0999 V2000
   -0.0000   -2.7857    0.0000 C   0  0  0  0  0  0  0  0  0  0  0  0
   -0.0000   -1.2857    0.0000 C   0  0  0  0  0  0  0  0  0  0  0  0
   -1.2990   -0.5357    0.0000 P   0  0  0  0  0  0  0  0  0  0  0  0
   -1.2990    0.9643    0.0000 C   0  0  0  0  0  0  0  0  0  0  0  0
    0.0000    1.7143    0.0000 C   0  0  0  0  0  0  0  0  0  0  0  0
    0.0000    3.2143    0.0000 C   0  0  0  0  0  0  0  0  0  0  0  0
   -1.2990    3.9643    0.0000 C   0  0  0  0  0  0  0  0  0  0  0  0
   -2.5981    3.2143    0.0000 C   0  0  0  0  0  0  0  0  0  0  0  0
   -2.5981    1.7143    0.0000 C   0  0  0  0  0  0  0  0  0  0  0  0
   -2.5981   -1.2857    0.0000 C   0  0  0  0  0  0  0  0  0  0  0  0
   -3.8971   -0.5357    0.0000 C   0  0  0  0  0  0  0  0  0  0  0  0
   -5.1962   -1.2857    0.0000 C   0  0  0  0  0  0  0  0  0  0  0  0
   -5.1962   -2.7857    0.0000 C   0  0  0  0  0  0  0  0  0  0  0  0
   -3.8971   -3.5357    0.0000 C   0  0  0  0  0  0  0  0  0  0  0  0
   -2.5981   -2.7857    0.0000 C   0  0  0  0  0  0  0  0  0  0  0  0
    1.2990   -0.5357    0.0000 P   0  0  0  0  0  0  0  0  0  0  0  0
    2.5981   -1.2857    0.0000 C   0  0  0  0  0  0  0  0  0  0  0  0
    2.5981   -2.7857    0.0000 C   0  0  0  0  0  0  0  0  0  0  0  0
    3.8971   -3.5357    0.0000 C   0  0  0  0  0  0  0  0  0  0  0  0
    5.1962   -2.7857    0.0000 C   0  0  0  0  0  0  0  0  0  0  0  0
    5.1962   -1.2857    0.0000 C   0  0  0  0  0  0  0  0  0  0  0  0
    3.8971   -0.5357    0.0000 C   0  0  0  0  0  0  0  0  0  0  0  0
    1.2990    0.9643    0.0000 C   0  0  0  0  0  0  0  0  0  0  0  0
    2.5981    1.7143    0.0000 C   0  0  0  0  0  0  0  0  0  0  0  0
    2.5981    3.2143    0.0000 C   0  0  0  0  0  0  0  0  0  0  0  0
    1.2990    3.9643    0.0000 C   0  0  0  0  0  0  0  0  0  0  0  0
    0.0000    3.2143    0.0000 C   0  0  0  0  0  0  0  0  0  0  0  0
    0.0000    1.7143    0.0000 C   0  0  0  0  0  0  0  0  0  0  0  0
  1  2  1  0
  2  3  1  0
  3  4  1  0
  4  5  2  0
  5  6  1  0
  6  7  2  0
  7  8  1  0
  8  9  2  0
  3 10  1  0
 10 11  2  0
 11 12  1  0
 12 13  2  0
 13 14  1  0
 14 15  2  0
  2 16  1  0
 16 17  1  0
 17 18  2  0
 18 19  1  0
 19 20  2  0
 20 21  1  0
 21 22  2  0
 16 23  1  0
 23 24  2  0
 24 25  1  0
 25 26  2  0
 26 27  1  0
 27 28  2  0
  9  4  1  0
 15 10  1  0
 22 17  1  0
 28 23  1  0
M  END
>  <linear_selectivity>  (811) 
51

>  <denticity>  (811) 
2

>  <ligand_class>  (811) 
diphosphine

$$$$
dppe_70C_xylene
     RDKit          2D

 28 31  0  0  0  0  0  0  0  0999 V2000
   -0.0000   -2.7857    0.0000 C   0  0  0  0  0  0  0  0  0  0  0  0
   -0.0000   -1.2857    0.0000 C   0  0  0  0  0  0  0  0  0  0  0  0
   -1.2990   -0.5357    0.0000 P   0  0  0  0  0  0  0  0  0  0  0  0
   -1.2990    0.9643    0.0000 C   0  0  0  0  0  0  0  0  0  0  0  0
    0.0000    1.7143    0.0000 C   0  0  0  0  0  0  0  0  0  0  0  0
    0.0000    3.2143    0.0000 C   0  0  0  0  0  0  0  0  0  0  0  0
   -1.2990    3.9643    0.0000 C   0  0  0  0  0  0  0  0  0  0  0  0
   -2.5981    3.2143    0.0000 C   0  0  0  0  0  0  0  0  0  0  0  0
   -2.5981    1.7143    0.0000 C   0  0  0  0  0  0  0  0  0  0  0  0
   -2.5981   -1.2857    0.0000 C   0  0  0  0  0  0  0  0  0  0  0  0
   -3.8971   -0.5357    0.0000 C   0  0  0  0  0  0  0  0  0  0  0  0
   -5.1962   -1.2857    0.0000 C   0  0  0  0  0  0  0  0  0  0  0  0
   -5.1962   -2.7857    0.0000 C   0  0  0  0  0  0  0  0  0  0  0  0
   -3.8971   -3.5357    0.0000 C   0  0  0  0  0  0  0  0  0  0  0  0
   -2.5981   -2.7857    0.0000 C   0  0  0  0  0  0  0  0  0  0  0  0
    1.2990   -0.5357    0.0000 P   0  0  0  0  0  0  0  0  0  0  0  0
    2.5981   -1.2857    0.0000 C   0  0  0  0  0  0  0  0  0  0  0  0
    2.5981   -2.7857    0.0000 C   0  0  0  0  0  0  0  0  0  0  0  0
    3.8971   -3.5357    0.0000 C   0  0  0  0  0  0  0  0  0  0  0  0
    5.1962   -2.7857    0.0000 C   0  0  0  0  0  0  0  0  0  0  0  0
    5.1962   -1.2857    0.0000 C   0  0  0  0  0  0  0  0  0  0  0  0
    3.8971   -0.5357    0.0000 C   0  0  0  0  0  0  0  0  0  0  0  0
    1.2990    0.9643    0.0000 C   0  0  0  0  0  0  0  0  0  0  0  0
    2.5981    1.7143    0.0000 C   0  0  0  0  0  0  0  0  0  0  0  0
    2.5981    3.2143    0.0000 C   0  0  0  0  0  0  0  0  0  0  0  0
    1.2990    3.9643    0.0000 C   0  0  0  0  0  0  0  0  0  0  0  0
    0.0000    3.2143    0.0000 C   0  0  0  0  0  0  0  0  0  0  0  0
    0.0000    1.7143    0.0000 C   0  0  0  0  0  0  0  0  0  0  0  0
  1  2  1  0
  2  3  1  0
  3  4  1  0
  4  5  2  0
  5  6  1  0
  6  7  2  0
  7  8  1  0
  8  9  2  0
  3 10  1  0
 10 11  2  0
 11 12  1  0
 12 13  2  0
 13 14  1  0
 14 15  2  0
  2 16  1  0
 16 17  1  0
 17 18  2  0
 18 19  1  0
 19 20  2  0
 20 21  1  0
 21 22  2  0
 16 23  1  0
 23 24  2  0
 24 25  1  0
 25 26  2  0
 26 27  1  0
 27 28  2  0
  9  4  1  0
 15 10  1  0
 22 17  1  0
 28 23  1  0
M  END
>  <linear_selectivity>  (812) 
55

>  <denticity>  (812) 
2

>  <ligand_class>  (812) 
diphosphine

$$$$
dppe_80C_THF
     RDKit          2D

 28 31  0  0  0  0  0  0  0  0999 V2000
   -0.0000   -2.7857    0.0000 C   0  0  0  0  0  0  0  0  0  0  0  0
   -0.0000   -1.2857    0.0000 C   0  0  0  0  0  0  0  0  0  0  0  0
   -1.2990   -0.5357    0.0000 P   0  0  0  0  0  0  0  0  0  0  0  0
   -1.2990    0.9643    0.0000 C   0  0  0  0  0  0  0  0  0  0  0  0
    0.0000    1.7143    0.0000 C   0  0  0  0  0  0  0  0  0  0  0  0
    0.0000    3.2143    0.0000 C   0  0  0  0  0  0  0  0  0  0  0  0
   -1.2990    3.9643    0.0000 C   0  0  0  0  0  0  0  0  0  0  0  0
   -2.5981    3.2143    0.0000 C   0  0  0  0  0  0  0  0  0  0  0  0
   -2.5981    1.7143    0.0000 C   0  0  0  0  0  0  0  0  0  0  0  0
   -2.5981   -1.2857    0.0000 C   0  0  0  0  0  0  0  0  0  0  0  0
   -3.8971   -0.5357    0.0000 C   0  0  0  0  0  0  0  0  0  0  0  0
   -5.1962   -1.2857    0.0000 C   0  0  0  0  0  0  0  0  0  0  0  0
   -5.1962   -2.7857    0.0000 C   0  0  0  0  0  0  0  0  0  0  0  0
   -3.8971   -3.5357    0.0000 C   0  0  0  0  0  0  0  0  0  0  0  0
   -2.5981   -2.7857    0.0000 C   0  0  0  0  0  0  0  0  0  0  0  0
    1.2990   -0.5357    0.0000 P   0  0  0  0  0  0  0  0  0  0  0  0
    2.5981   -1.2857    0.0000 C   0  0  0  0  0  0  0  0  0  0  0  0
    2.5981   -2.7857    0.0000 C   0  0  0  0  0  0  0  0  0  0  0  0
    3.8971   -3.5357    0.0000 C   0  0  0  0  0  0  0  0  0  0  0  0
    5.1962   -2.7857    0.0000 C   0  0  0  0  0  0  0  0  0  0  0  0
    5.1962   -1.2857    0.0000 C   0  0  0  0  0  0  0  0  0  0  0  0
    3.8971   -0.5357    0.0000 C   0  0  0  0  0  0  0  0  0  0  0  0
    1.2990    0.9643    0.0000 C   0  0  0  0  0  0  0  0  0  0  0  0
    2.5981    1.7143    0.0000 C   0  0  0  0  0  0  0  0  0  0  0  0
    2.5981    3.2143    0.0000 C   0  0  0  0  0  0  0  0  0  0  0  0
    1.2990    3.9643    0.0000 C   0  0  0  0  0  0  0  0  0  0  0  0
    0.0000    3.2143    0.0000 C   0  0  0  0  0  0  0  0  0  0  0  0
    0.0000    1.7143    0.0000 C   0  0  0  0  0  0  0  0  0  0  0  0
  1  2  1  0
  2  3  1  0
  3  4  1  0
  4  5  2  0
  5  6  1  0
  6  7  2  0
  7  8  1  0
  8  9  2  0
  3 10  1  0
 10 11  2  0
 11 12  1  0
 12 13  2  0
 13 14  1  0
 14 15  2  0
  2 16  1  0
 16 17  1  0
 17 18  2  0
 18 19  1  0
 19 20  2  0
 20 21  1  0
 21 22  2  0
 16 23  1  0
 23 24  2  0
 24 25  1  0
 25 26  2  0
 26 27  1  0
 27 28  2  0
  9  4  1  0
 15 10  1  0
 22 17  1  0
 28 23  1  0
M  END
>  <linear_selectivity>  (813) 
47

>  <denticity>  (813) 
2

>  <ligand_class>  (813) 
diphosphine

$$$$
dppe_80C_dioxane
     RDKit          2D

 28 31  0  0  0  0  0  0  0  0999 V2000
   -0.0000   -2.7857    0.0000 C   0  0  0  0  0  0  0  0  0  0  0  0
   -0.0000   -1.2857    0.0000 C   0  0  0  0  0  0  0  0  0  0  0  0
   -1.2990   -0.5357    0.0000 P   0  0  0  0  0  0  0  0  0  0  0  0
   -1.2990    0.9643    0.0000 C   0  0  0  0  0  0  0  0  0  0  0  0
    0.0000    1.7143    0.0000 C   0  0  0  0  0  0  0  0  0  0  0  0
    0.0000    3.2143    0.0000 C   0  0  0  0  0  0  0  0  0  0  0  0
   -1.2990    3.9643    0.0000 C   0  0  0  0  0  0  0  0  0  0  0  0
   -2.5981    3.2143    0.0000 C   0  0  0  0  0  0  0  0  0  0  0  0
   -2.5981    1.7143    0.0000 C   0  0  0  0  0  0  0  0  0  0  0  0
   -2.5981   -1.2857    0.0000 C   0  0  0  0  0  0  0  0  0  0  0  0
   -3.8971   -0.5357    0.0000 C   0  0  0  0  0  0  0  0  0  0  0  0
   -5.1962   -1.2857    0.0000 C   0  0  0  0  0  0  0  0  0  0  0  0
   -5.1962   -2.7857    0.0000 C   0  0  0  0  0  0  0  0  0  0  0  0
   -3.8971   -3.5357    0.0000 C   0  0  0  0  0  0  0  0  0  0  0  0
   -2.5981   -2.7857    0.0000 C   0  0  0  0  0  0  0  0  0  0  0  0
    1.2990   -0.5357    0.0000 P   0  0  0  0  0  0  0  0  0  0  0  0
    2.5981   -1.2857    0.0000 C   0  0  0  0  0  0  0  0  0  0  0  0
    2.5981   -2.7857    0.0000 C   0  0  0  0  0  0  0  0  0  0  0  0
    3.8971   -3.5357    0.0000 C   0  0  0  0  0  0  0  0  0  0  0  0
    5.1962   -2.7857    0.0000 C   0  0  0  0  0  0  0  0  0  0  0  0
    5.1962   -1.2857    0.0000 C   0  0  0  0  0  0  0  0  0  0  0  0
    3.8971   -0.5357    0.0000 C   0  0  0  0  0  0  0  0  0  0  0  0
    1.2990    0.9643    0.0000 C   0  0  0  0  0  0  0  0  0  0  0  0
    2.5981    1.7143    0.0000 C   0  0  0  0  0  0  0  0  0  0  0  0
    2.5981    3.2143    0.0000 C   0  0  0  0  0  0  0  0  0  0  0  0
    1.2990    3.9643    0.0000 C   0  0  0  0  0  0  0  0  0  0  0  0
    0.0000    3.2143    0.0000 C   0  0  0  0  0  0  0  0  0  0  0  0
    0.0000    1.7143    0.0000 C   0  0  0  0  0  0  0  0  0  0  0  0
  1  2  1  0
  2  3  1  0
  3  4  1  0
  4  5  2  0
  5  6  1  0
  6  7  2  0
  7  8  1  0
  8  9  2  0
  3 10  1  0
 10 11  2  0
 11 12  1  0
 12 13  2  0
 13 14  1  0
 14 15  2  0
  2 16  1  0
 16 17  1  0
 17 18  2  0
 18 19  1  0
 19 20  2  0
 20 21  1  0
 21 22  2  0
 16 23  1  0
 23 24  2  0
 24 25  1  0
 25 26  2  0
 26 27  1  0
 27 28  2  0
  9  4  1  0
 15 10  1  0
 22 17  1  0
 28 23  1  0
M  END
>  <linear_selectivity>  (814) 
46

>  <denticity>  (814) 
2

>  <ligand_class>  (814) 
diphosphine

$$$$
dppe_80C_benzene
     RDKit          2D

 28 31  0  0  0  0  0  0  0  0999 V2000
   -0.0000   -2.7857    0.0000 C   0  0  0  0  0  0  0  0  0  0  0  0
   -0.0000   -1.2857    0.0000 C   0  0  0  0  0  0  0  0  0  0  0  0
   -1.2990   -0.5357    0.0000 P   0  0  0  0  0  0  0  0  0  0  0  0
   -1.2990    0.9643    0.0000 C   0  0  0  0  0  0  0  0  0  0  0  0
    0.0000    1.7143    0.0000 C   0  0  0  0  0  0  0  0  0  0  0  0
    0.0000    3.2143    0.0000 C   0  0  0  0  0  0  0  0  0  0  0  0
   -1.2990    3.9643    0.0000 C   0  0  0  0  0  0  0  0  0  0  0  0
   -2.5981    3.2143    0.0000 C   0  0  0  0  0  0  0  0  0  0  0  0
   -2.5981    1.7143    0.0000 C   0  0  0  0  0  0  0  0  0  0  0  0
   -2.5981   -1.2857    0.0000 C   0  0  0  0  0  0  0  0  0  0  0  0
   -3.8971   -0.5357    0.0000 C   0  0  0  0  0  0  0  0  0  0  0  0
   -5.1962   -1.2857    0.0000 C   0  0  0  0  0  0  0  0  0  0  0  0
   -5.1962   -2.7857    0.0000 C   0  0  0  0  0  0  0  0  0  0  0  0
   -3.8971   -3.5357    0.0000 C   0  0  0  0  0  0  0  0  0  0  0  0
   -2.5981   -2.7857    0.0000 C   0  0  0  0  0  0  0  0  0  0  0  0
    1.2990   -0.5357    0.0000 P   0  0  0  0  0  0  0  0  0  0  0  0
    2.5981   -1.2857    0.0000 C   0  0  0  0  0  0  0  0  0  0  0  0
    2.5981   -2.7857    0.0000 C   0  0  0  0  0  0  0  0  0  0  0  0
    3.8971   -3.5357    0.0000 C   0  0  0  0  0  0  0  0  0  0  0  0
    5.1962   -2.7857    0.0000 C   0  0  0  0  0  0  0  0  0  0  0  0
    5.1962   -1.2857    0.0000 C   0  0  0  0  0  0  0  0  0  0  0  0
    3.8971   -0.5357    0.0000 C   0  0  0  0  0  0  0  0  0  0  0  0
    1.2990    0.9643    0.0000 C   0  0  0  0  0  0  0  0  0  0  0  0
    2.5981    1.7143    0.0000 C   0  0  0  0  0  0  0  0  0  0  0  0
    2.5981    3.2143    0.0000 C   0  0  0  0  0  0  0  0  0  0  0  0
    1.2990    3.9643    0.0000 C   0  0  0  0  0  0  0  0  0  0  0  0
    0.0000    3.2143    0.0000 C   0  0  0  0  0  0  0  0  0  0  0  0
    0.0000    1.7143    0.0000 C   0  0  0  0  0  0  0  0  0  0  0  0
  1  2  1  0
  2  3  1  0
  3  4  1  0
  4  5  2  0
  5  6  1  0
  6  7  2  0
  7  8  1  0
  8  9  2  0
  3 10  1  0
 10 11  2  0
 11 12  1  0
 12 13  2  0
 13 14  1  0
 14 15  2  0
  2 16  1  0
 16 17  1  0
 17 18  2  0
 18 19  1  0
 19 20  2  0
 20 21  1  0
 21 22  2  0
 16 23  1  0
 23 24  2  0
 24 25  1  0
 25 26  2  0
 26 27  1  0
 27 28  2  0
  9  4  1  0
 15 10  1  0
 22 17  1  0
 28 23  1  0
M  END
>  <linear_selectivity>  (815) 
51

>  <denticity>  (815) 
2

>  <ligand_class>  (815) 
diphosphine

$$$$
dppe_80C_xylene
     RDKit          2D

 28 31  0  0  0  0  0  0  0  0999 V2000
   -0.0000   -2.7857    0.0000 C   0  0  0  0  0  0  0  0  0  0  0  0
   -0.0000   -1.2857    0.0000 C   0  0  0  0  0  0  0  0  0  0  0  0
   -1.2990   -0.5357    0.0000 P   0  0  0  0  0  0  0  0  0  0  0  0
   -1.2990    0.9643    0.0000 C   0  0  0  0  0  0  0  0  0  0  0  0
    0.0000    1.7143    0.0000 C   0  0  0  0  0  0  0  0  0  0  0  0
    0.0000    3.2143    0.0000 C   0  0  0  0  0  0  0  0  0  0  0  0
   -1.2990    3.9643    0.0000 C   0  0  0  0  0  0  0  0  0  0  0  0
   -2.5981    3.2143    0.0000 C   0  0  0  0  0  0  0  0  0  0  0  0
   -2.5981    1.7143    0.0000 C   0  0  0  0  0  0  0  0  0  0  0  0
   -2.5981   -1.2857    0.0000 C   0  0  0  0  0  0  0  0  0  0  0  0
   -3.8971   -0.5357    0.0000 C   0  0  0  0  0  0  0  0  0  0  0  0
   -5.1962   -1.2857    0.0000 C   0  0  0  0  0  0  0  0  0  0  0  0
   -5.1962   -2.7857    0.0000 C   0  0  0  0  0  0  0  0  0  0  0  0
   -3.8971   -3.5357    0.0000 C   0  0  0  0  0  0  0  0  0  0  0  0
   -2.5981   -2.7857    0.0000 C   0  0  0  0  0  0  0  0  0  0  0  0
    1.2990   -0.5357    0.0000 P   0  0  0  0  0  0  0  0  0  0  0  0
    2.5981   -1.2857    0.0000 C   0  0  0  0  0  0  0  0  0  0  0  0
    2.5981   -2.7857    0.0000 C   0  0  0  0  0  0  0  0  0  0  0  0
    3.8971   -3.5357    0.0000 C   0  0  0  0  0  0  0  0  0  0  0  0
    5.1962   -2.7857    0.0000 C   0  0  0  0  0  0  0  0  0  0  0  0
    5.1962   -1.2857    0.0000 C   0  0  0  0  0  0  0  0  0  0  0  0
    3.8971   -0.5357    0.0000 C   0  0  0  0  0  0  0  0  0  0  0  0
    1.2990    0.9643    0.0000 C   0  0  0  0  0  0  0  0  0  0  0  0
    2.5981    1.7143    0.0000 C   0  0  0  0  0  0  0  0  0  0  0  0
    2.5981    3.2143    0.0000 C   0  0  0  0  0  0  0  0  0  0  0  0
    1.2990    3.9643    0.0000 C   0  0  0  0  0  0  0  0  0  0  0  0
    0.0000    3.2143    0.0000 C   0  0  0  0  0  0  0  0  0  0  0  0
    0.0000    1.7143    0.0000 C   0  0  0  0  0  0  0  0  0  0  0  0
  1  2  1  0
  2  3  1  0
  3  4  1  0
  4  5  2  0
  5  6  1  0
  6  7  2  0
  7  8  1  0
  8  9  2  0
  3 10  1  0
 10 11  2  0
 11 12  1  0
 12 13  2  0
 13 14  1  0
 14 15  2  0
  2 16  1  0
 16 17  1  0
 17 18  2  0
 18 19  1  0
 19 20  2  0
 20 21  1  0
 21 22  2  0
 16 23  1  0
 23 24  2  0
 24 25  1  0
 25 26  2  0
 26 27  1  0
 27 28  2  0
  9  4  1  0
 15 10  1  0
 22 17  1  0
 28 23  1  0
M  END
>  <linear_selectivity>  (816) 
51

>  <denticity>  (816) 
2

>  <ligand_class>  (816) 
diphosphine

$$$$
dppe_90C_toluene
     RDKit          2D

 28 31  0  0  0  0  0  0  0  0999 V2000
   -0.0000   -2.7857    0.0000 C   0  0  0  0  0  0  0  0  0  0  0  0
   -0.0000   -1.2857    0.0000 C   0  0  0  0  0  0  0  0  0  0  0  0
   -1.2990   -0.5357    0.0000 P   0  0  0  0  0  0  0  0  0  0  0  0
   -1.2990    0.9643    0.0000 C   0  0  0  0  0  0  0  0  0  0  0  0
    0.0000    1.7143    0.0000 C   0  0  0  0  0  0  0  0  0  0  0  0
    0.0000    3.2143    0.0000 C   0  0  0  0  0  0  0  0  0  0  0  0
   -1.2990    3.9643    0.0000 C   0  0  0  0  0  0  0  0  0  0  0  0
   -2.5981    3.2143    0.0000 C   0  0  0  0  0  0  0  0  0  0  0  0
   -2.5981    1.7143    0.0000 C   0  0  0  0  0  0  0  0  0  0  0  0
   -2.5981   -1.2857    0.0000 C   0  0  0  0  0  0  0  0  0  0  0  0
   -3.8971   -0.5357    0.0000 C   0  0  0  0  0  0  0  0  0  0  0  0
   -5.1962   -1.2857    0.0000 C   0  0  0  0  0  0  0  0  0  0  0  0
   -5.1962   -2.7857    0.0000 C   0  0  0  0  0  0  0  0  0  0  0  0
   -3.8971   -3.5357    0.0000 C   0  0  0  0  0  0  0  0  0  0  0  0
   -2.5981   -2.7857    0.0000 C   0  0  0  0  0  0  0  0  0  0  0  0
    1.2990   -0.5357    0.0000 P   0  0  0  0  0  0  0  0  0  0  0  0
    2.5981   -1.2857    0.0000 C   0  0  0  0  0  0  0  0  0  0  0  0
    2.5981   -2.7857    0.0000 C   0  0  0  0  0  0  0  0  0  0  0  0
    3.8971   -3.5357    0.0000 C   0  0  0  0  0  0  0  0  0  0  0  0
    5.1962   -2.7857    0.0000 C   0  0  0  0  0  0  0  0  0  0  0  0
    5.1962   -1.2857    0.0000 C   0  0  0  0  0  0  0  0  0  0  0  0
    3.8971   -0.5357    0.0000 C   0  0  0  0  0  0  0  0  0  0  0  0
    1.2990    0.9643    0.0000 C   0  0  0  0  0  0  0  0  0  0  0  0
    2.5981    1.7143    0.0000 C   0  0  0  0  0  0  0  0  0  0  0  0
    2.5981    3.2143    0.0000 C   0  0  0  0  0  0  0  0  0  0  0  0
    1.2990    3.9643    0.0000 C   0  0  0  0  0  0  0  0  0  0  0  0
    0.0000    3.2143    0.0000 C   0  0  0  0  0  0  0  0  0  0  0  0
    0.0000    1.7143    0.0000 C   0  0  0  0  0  0  0  0  0  0  0  0
  1  2  1  0
  2  3  1  0
  3  4  1  0
  4  5  2  0
  5  6  1  0
  6  7  2  0
  7  8  1  0
  8  9  2  0
  3 10  1  0
 10 11  2  0
 11 12  1  0
 12 13  2  0
 13 14  1  0
 14 15  2  0
  2 16  1  0
 16 17  1  0
 17 18  2  0
 18 19  1  0
 19 20  2  0
 20 21  1  0
 21 22  2  0
 16 23  1  0
 23 24  2  0
 24 25  1  0
 25 26  2  0
 26 27  1  0
 27 28  2  0
  9  4  1  0
 15 10  1  0
 22 17  1  0
 28 23  1  0
M  END
>  <linear_selectivity>  (817) 
49

>  <denticity>  (817) 
2

>  <ligand_class>  (817) 
diphosphine

$$$$
dppe_90C_THF
     RDKit          2D

 28 31  0  0  0  0  0  0  0  0999 V2000
   -0.0000   -2.7857    0.0000 C   0  0  0  0  0  0  0  0  0  0  0  0
   -0.0000   -1.2857    0.0000 C   0  0  0  0  0  0  0  0  0  0  0  0
   -1.2990   -0.5357    0.0000 P   0  0  0  0  0  0  0  0  0  0  0  0
   -1.2990    0.9643    0.0000 C   0  0  0  0  0  0  0  0  0  0  0  0
    0.0000    1.7143    0.0000 C   0  0  0  0  0  0  0  0  0  0  0  0
    0.0000    3.2143    0.0000 C   0  0  0  0  0  0  0  0  0  0  0  0
   -1.2990    3.9643    0.0000 C   0  0  0  0  0  0  0  0  0  0  0  0
   -2.5981    3.2143    0.0000 C   0  0  0  0  0  0  0  0  0  0  0  0
   -2.5981    1.7143    0.0000 C   0  0  0  0  0  0  0  0  0  0  0  0
   -2.5981   -1.2857    0.0000 C   0  0  0  0  0  0  0  0  0  0  0  0
   -3.8971   -0.5357    0.0000 C   0  0  0  0  0  0  0  0  0  0  0  0
   -5.1962   -1.2857    0.0000 C   0  0  0  0  0  0  0  0  0  0  0  0
   -5.1962   -2.7857    0.0000 C   0  0  0  0  0  0  0  0  0  0  0  0
   -3.8971   -3.5357    0.0000 C   0  0  0  0  0  0  0  0  0  0  0  0
   -2.5981   -2.7857    0.0000 C   0  0  0  0  0  0  0  0  0  0  0  0
    1.2990   -0.5357    0.0000 P   0  0  0  0  0  0  0  0  0  0  0  0
    2.5981   -1.2857    0.0000 C   0  0  0  0  0  0  0  0  0  0  0  0
    2.5981   -2.7857    0.0000 C   0  0  0  0  0  0  0  0  0  0  0  0
    3.8971   -3.5357    0.0000 C   0  0  0  0  0  0  0  0  0  0  0  0
    5.1962   -2.7857    0.0000 C   0  0  0  0  0  0  0  0  0  0  0  0
    5.1962   -1.2857    0.0000 C   0  0  0  0  0  0  0  0  0  0  0  0
    3.8971   -0.5357    0.0000 C   0  0  0  0  0  0  0  0  0  0  0  0
    1.2990    0.9643    0.0000 C   0  0  0  0  0  0  0  0  0  0  0  0
    2.5981    1.7143    0.0000 C   0  0  0  0  0  0  0  0  0  0  0  0
    2.5981    3.2143    0.0000 C   0  0  0  0  0  0  0  0  0  0  0  0
    1.2990    3.9643    0.0000 C   0  0  0  0  0  0  0  0  0  0  0  0
    0.0000    3.2143    0.0000 C   0  0  0  0  0  0  0  0  0  0  0  0
    0.0000    1.7143    0.0000 C   0  0  0  0  0  0  0  0  0  0  0  0
  1  2  1  0
  2  3  1  0
  3  4  1  0
  4  5  2  0
  5  6  1  0
  6  7  2  0
  7  8  1  0
  8  9  2  0
  3 10  1  0
 10 11  2  0
 11 12  1  0
 12 13  2  0
 13 14  1  0
 14 15  2  0
  2 16  1  0
 16 17  1  0
 17 18  2  0
 18 19  1  0
 19 20  2  0
 20 21  1  0
 21 22  2  0
 16 23  1  0
 23 24  2  0
 24 25  1  0
 25 26  2  0
 26 27  1  0
 27 28  2  0
  9  4  1  0
 15 10  1  0
 22 17  1  0
 28 23  1  0
M  END
>  <linear_selectivity>  (818) 
39

>  <denticity>  (818) 
2

>  <ligand_class>  (818) 
diphosphine

$$$$
dppe_90C_dioxane
     RDKit          2D

 28 31  0  0  0  0  0  0  0  0999 V2000
   -0.0000   -2.7857    0.0000 C   0  0  0  0  0  0  0  0  0  0  0  0
   -0.0000   -1.2857    0.0000 C   0  0  0  0  0  0  0  0  0  0  0  0
   -1.2990   -0.5357    0.0000 P   0  0  0  0  0  0  0  0  0  0  0  0
   -1.2990    0.9643    0.0000 C   0  0  0  0  0  0  0  0  0  0  0  0
    0.0000    1.7143    0.0000 C   0  0  0  0  0  0  0  0  0  0  0  0
    0.0000    3.2143    0.0000 C   0  0  0  0  0  0  0  0  0  0  0  0
   -1.2990    3.9643    0.0000 C   0  0  0  0  0  0  0  0  0  0  0  0
   -2.5981    3.2143    0.0000 C   0  0  0  0  0  0  0  0  0  0  0  0
   -2.5981    1.7143    0.0000 C   0  0  0  0  0  0  0  0  0  0  0  0
   -2.5981   -1.2857    0.0000 C   0  0  0  0  0  0  0  0  0  0  0  0
   -3.8971   -0.5357    0.0000 C   0  0  0  0  0  0  0  0  0  0  0  0
   -5.1962   -1.2857    0.0000 C   0  0  0  0  0  0  0  0  0  0  0  0
   -5.1962   -2.7857    0.0000 C   0  0  0  0  0  0  0  0  0  0  0  0
   -3.8971   -3.5357    0.0000 C   0  0  0  0  0  0  0  0  0  0  0  0
   -2.5981   -2.7857    0.0000 C   0  0  0  0  0  0  0  0  0  0  0  0
    1.2990   -0.5357    0.0000 P   0  0  0  0  0  0  0  0  0  0  0  0
    2.5981   -1.2857    0.0000 C   0  0  0  0  0  0  0  0  0  0  0  0
    2.5981   -2.7857    0.0000 C   0  0  0  0  0  0  0  0  0  0  0  0
    3.8971   -3.5357    0.0000 C   0  0  0  0  0  0  0  0  0  0  0  0
    5.1962   -2.7857    0.0000 C   0  0  0  0  0  0  0  0  0  0  0  0
    5.1962   -1.2857    0.0000 C   0  0  0  0  0  0  0  0  0  0  0  0
    3.8971   -0.5357    0.0000 C   0  0  0  0  0  0  0  0  0  0  0  0
    1.2990    0.9643    0.0000 C   0  0  0  0  0  0  0  0  0  0  0  0
    2.5981    1.7143    0.0000 C   0  0  0  0  0  0  0  0  0  0  0  0
    2.5981    3.2143    0.0000 C   0  0  0  0  0  0  0  0  0  0  0  0
    1.2990    3.9643    0.0000 C   0  0  0  0  0  0  0  0  0  0  0  0
    0.0000    3.2143    0.0000 C   0  0  0  0  0  0  0  0  0  0  0  0
    0.0000    1.7143    0.0000 C   0  0  0  0  0  0  0  0  0  0  0  0
  1  2  1  0
  2  3  1  0
  3  4  1  0
  4  5  2  0
  5  6  1  0
  6  7  2  0
  7  8  1  0
  8  9  2  0
  3 10  1  0
 10 11  2  0
 11 12  1  0
 12 13  2  0
 13 14  1  0
 14 15  2  0
  2 16  1  0
 16 17  1  0
 17 18  2  0
 18 19  1  0
 19 20  2  0
 20 21  1  0
 21 22  2  0
 16 23  1  0
 23 24  2  0
 24 25  1  0
 25 26  2  0
 26 27  1  0
 27 28  2  0
  9  4  1  0
 15 10  1  0
 22 17  1  0
 28 23  1  0
M  END
>  <linear_selectivity>  (819) 
46

>  <denticity>  (819) 
2

>  <ligand_class>  (819) 
diphosphine

$$$$
dppe_90C_benzene
     RDKit          2D

 28 31  0  0  0  0  0  0  0  0999 V2000
   -0.0000   -2.7857    0.0000 C   0  0  0  0  0  0  0  0  0  0  0  0
   -0.0000   -1.2857    0.0000 C   0  0  0  0  0  0  0  0  0  0  0  0
   -1.2990   -0.5357    0.0000 P   0  0  0  0  0  0  0  0  0  0  0  0
   -1.2990    0.9643    0.0000 C   0  0  0  0  0  0  0  0  0  0  0  0
    0.0000    1.7143    0.0000 C   0  0  0  0  0  0  0  0  0  0  0  0
    0.0000    3.2143    0.0000 C   0  0  0  0  0  0  0  0  0  0  0  0
   -1.2990    3.9643    0.0000 C   0  0  0  0  0  0  0  0  0  0  0  0
   -2.5981    3.2143    0.0000 C   0  0  0  0  0  0  0  0  0  0  0  0
   -2.5981    1.7143    0.0000 C   0  0  0  0  0  0  0  0  0  0  0  0
   -2.5981   -1.2857    0.0000 C   0  0  0  0  0  0  0  0  0  0  0  0
   -3.8971   -0.5357    0.0000 C   0  0  0  0  0  0  0  0  0  0  0  0
   -5.1962   -1.2857    0.0000 C   0  0  0  0  0  0  0  0  0  0  0  0
   -5.1962   -2.7857    0.0000 C   0  0  0  0  0  0  0  0  0  0  0  0
   -3.8971   -3.5357    0.0000 C   0  0  0  0  0  0  0  0  0  0  0  0
   -2.5981   -2.7857    0.0000 C   0  0  0  0  0  0  0  0  0  0  0  0
    1.2990   -0.5357    0.0000 P   0  0  0  0  0  0  0  0  0  0  0  0
    2.5981   -1.2857    0.0000 C   0  0  0  0  0  0  0  0  0  0  0  0
    2.5981   -2.7857    0.0000 C   0  0  0  0  0  0  0  0  0  0  0  0
    3.8971   -3.5357    0.0000 C   0  0  0  0  0  0  0  0  0  0  0  0
    5.1962   -2.7857    0.0000 C   0  0  0  0  0  0  0  0  0  0  0  0
    5.1962   -1.2857    0.0000 C   0  0  0  0  0  0  0  0  0  0  0  0
    3.8971   -0.5357    0.0000 C   0  0  0  0  0  0  0  0  0  0  0  0
    1.2990    0.9643    0.0000 C   0  0  0  0  0  0  0  0  0  0  0  0
    2.5981    1.7143    0.0000 C   0  0  0  0  0  0  0  0  0  0  0  0
    2.5981    3.2143    0.0000 C   0  0  0  0  0  0  0  0  0  0  0  0
    1.2990    3.9643    0.0000 C   0  0  0  0  0  0  0  0  0  0  0  0
    0.0000    3.2143    0.0000 C   0  0  0  0  0  0  0  0  0  0  0  0
    0.0000    1.7143    0.0000 C   0  0  0  0  0  0  0  0  0  0  0  0
  1  2  1  0
  2  3  1  0
  3  4  1  0
  4  5  2  0
  5  6  1  0
  6  7  2  0
  7  8  1  0
  8  9  2  0
  3 10  1  0
 10 11  2  0
 11 12  1  0
 12 13  2  0
 13 14  1  0
 14 15  2  0
  2 16  1  0
 16 17  1  0
 17 18  2  0
 18 19  1  0
 19 20  2  0
 20 21  1  0
 21 22  2  0
 16 23  1  0
 23 24  2  0
 24 25  1  0
 25 26  2  0
 26 27  1  0
 27 28  2  0
  9  4  1  0
 15 10  1  0
 22 17  1  0
 28 23  1  0
M  END
>  <linear_selectivity>  (820) 
49

>  <denticity>  (820) 
2

>  <ligand_class>  (820) 
diphosphine

$$$$
dppe_90C_xylene
     RDKit          2D

 28 31  0  0  0  0  0  0  0  0999 V2000
   -0.0000   -2.7857    0.0000 C   0  0  0  0  0  0  0  0  0  0  0  0
   -0.0000   -1.2857    0.0000 C   0  0  0  0  0  0  0  0  0  0  0  0
   -1.2990   -0.5357    0.0000 P   0  0  0  0  0  0  0  0  0  0  0  0
   -1.2990    0.9643    0.0000 C   0  0  0  0  0  0  0  0  0  0  0  0
    0.0000    1.7143    0.0000 C   0  0  0  0  0  0  0  0  0  0  0  0
    0.0000    3.2143    0.0000 C   0  0  0  0  0  0  0  0  0  0  0  0
   -1.2990    3.9643    0.0000 C   0  0  0  0  0  0  0  0  0  0  0  0
   -2.5981    3.2143    0.0000 C   0  0  0  0  0  0  0  0  0  0  0  0
   -2.5981    1.7143    0.0000 C   0  0  0  0  0  0  0  0  0  0  0  0
   -2.5981   -1.2857    0.0000 C   0  0  0  0  0  0  0  0  0  0  0  0
   -3.8971   -0.5357    0.0000 C   0  0  0  0  0  0  0  0  0  0  0  0
   -5.1962   -1.2857    0.0000 C   0  0  0  0  0  0  0  0  0  0  0  0
   -5.1962   -2.7857    0.0000 C   0  0  0  0  0  0  0  0  0  0  0  0
   -3.8971   -3.5357    0.0000 C   0  0  0  0  0  0  0  0  0  0  0  0
   -2.5981   -2.7857    0.0000 C   0  0  0  0  0  0  0  0  0  0  0  0
    1.2990   -0.5357    0.0000 P   0  0  0  0  0  0  0  0  0  0  0  0
    2.5981   -1.2857    0.0000 C   0  0  0  0  0  0  0  0  0  0  0  0
    2.5981   -2.7857    0.0000 C   0  0  0  0  0  0  0  0  0  0  0  0
    3.8971   -3.5357    0.0000 C   0  0  0  0  0  0  0  0  0  0  0  0
    5.1962   -2.7857    0.0000 C   0  0  0  0  0  0  0  0  0  0  0  0
    5.1962   -1.2857    0.0000 C   0  0  0  0  0  0  0  0  0  0  0  0
    3.8971   -0.5357    0.0000 C   0  0  0  0  0  0  0  0  0  0  0  0
    1.2990    0.9643    0.0000 C   0  0  0  0  0  0  0  0  0  0  0  0
    2.5981    1.7143    0.0000 C   0  0  0  0  0  0  0  0  0  0  0  0
    2.5981    3.2143    0.0000 C   0  0  0  0  0  0  0  0  0  0  0  0
    1.2990    3.9643    0.0000 C   0  0  0  0  0  0  0  0  0  0  0  0
    0.0000    3.2143    0.0000 C   0  0  0  0  0  0  0  0  0  0  0  0
    0.0000    1.7143    0.0000 C   0  0  0  0  0  0  0  0  0  0  0  0
  1  2  1  0
  2  3  1  0
  3  4  1  0
  4  5  2  0
  5  6  1  0
  6  7  2  0
  7  8  1  0
  8  9  2  0
  3 10  1  0
 10 11  2  0
 11 12  1  0
 12 13  2  0
 13 14  1  0
 14 15  2  0
  2 16  1  0
 16 17  1  0
 17 18  2  0
 18 19  1  0
 19 20  2  0
 20 21  1  0
 21 22  2  0
 16 23  1  0
 23 24  2  0
 24 25  1  0
 25 26  2  0
 26 27  1  0
 27 28  2  0
  9  4  1  0
 15 10  1  0
 22 17  1  0
 28 23  1  0
M  END
>  <linear_selectivity>  (821) 
52

>  <denticity>  (821) 
2

>  <ligand_class>  (821) 
diphosphine

$$$$
dppe_100C_toluene
     RDKit          2D

 28 31  0  0  0  0  0  0  0  0999 V2000
   -0.0000   -2.7857    0.0000 C   0  0  0  0  0  0  0  0  0  0  0  0
   -0.0000   -1.2857    0.0000 C   0  0  0  0  0  0  0  0  0  0  0  0
   -1.2990   -0.5357    0.0000 P   0  0  0  0  0  0  0  0  0  0  0  0
   -1.2990    0.9643    0.0000 C   0  0  0  0  0  0  0  0  0  0  0  0
    0.0000    1.7143    0.0000 C   0  0  0  0  0  0  0  0  0  0  0  0
    0.0000    3.2143    0.0000 C   0  0  0  0  0  0  0  0  0  0  0  0
   -1.2990    3.9643    0.0000 C   0  0  0  0  0  0  0  0  0  0  0  0
   -2.5981    3.2143    0.0000 C   0  0  0  0  0  0  0  0  0  0  0  0
   -2.5981    1.7143    0.0000 C   0  0  0  0  0  0  0  0  0  0  0  0
   -2.5981   -1.2857    0.0000 C   0  0  0  0  0  0  0  0  0  0  0  0
   -3.8971   -0.5357    0.0000 C   0  0  0  0  0  0  0  0  0  0  0  0
   -5.1962   -1.2857    0.0000 C   0  0  0  0  0  0  0  0  0  0  0  0
   -5.1962   -2.7857    0.0000 C   0  0  0  0  0  0  0  0  0  0  0  0
   -3.8971   -3.5357    0.0000 C   0  0  0  0  0  0  0  0  0  0  0  0
   -2.5981   -2.7857    0.0000 C   0  0  0  0  0  0  0  0  0  0  0  0
    1.2990   -0.5357    0.0000 P   0  0  0  0  0  0  0  0  0  0  0  0
    2.5981   -1.2857    0.0000 C   0  0  0  0  0  0  0  0  0  0  0  0
    2.5981   -2.7857    0.0000 C   0  0  0  0  0  0  0  0  0  0  0  0
    3.8971   -3.5357    0.0000 C   0  0  0  0  0  0  0  0  0  0  0  0
    5.1962   -2.7857    0.0000 C   0  0  0  0  0  0  0  0  0  0  0  0
    5.1962   -1.2857    0.0000 C   0  0  0  0  0  0  0  0  0  0  0  0
    3.8971   -0.5357    0.0000 C   0  0  0  0  0  0  0  0  0  0  0  0
    1.2990    0.9643    0.0000 C   0  0  0  0  0  0  0  0  0  0  0  0
    2.5981    1.7143    0.0000 C   0  0  0  0  0  0  0  0  0  0  0  0
    2.5981    3.2143    0.0000 C   0  0  0  0  0  0  0  0  0  0  0  0
    1.2990    3.9643    0.0000 C   0  0  0  0  0  0  0  0  0  0  0  0
    0.0000    3.2143    0.0000 C   0  0  0  0  0  0  0  0  0  0  0  0
    0.0000    1.7143    0.0000 C   0  0  0  0  0  0  0  0  0  0  0  0
  1  2  1  0
  2  3  1  0
  3  4  1  0
  4  5  2  0
  5  6  1  0
  6  7  2  0
  7  8  1  0
  8  9  2  0
  3 10  1  0
 10 11  2  0
 11 12  1  0
 12 13  2  0
 13 14  1  0
 14 15  2  0
  2 16  1  0
 16 17  1  0
 17 18  2  0
 18 19  1  0
 19 20  2  0
 20 21  1  0
 21 22  2  0
 16 23  1  0
 23 24  2  0
 24 25  1  0
 25 26  2  0
 26 27  1  0
 27 28  2  0
  9  4  1  0
 15 10  1  0
 22 17  1  0
 28 23  1  0
M  END
>  <linear_selectivity>  (822) 
42

>  <denticity>  (822) 
2

>  <ligand_class>  (822) 
diphosphine

$$$$
dppe_100C_THF
     RDKit          2D

 28 31  0  0  0  0  0  0  0  0999 V2000
   -0.0000   -2.7857    0.0000 C   0  0  0  0  0  0  0  0  0  0  0  0
   -0.0000   -1.2857    0.0000 C   0  0  0  0  0  0  0  0  0  0  0  0
   -1.2990   -0.5357    0.0000 P   0  0  0  0  0  0  0  0  0  0  0  0
   -1.2990    0.9643    0.0000 C   0  0  0  0  0  0  0  0  0  0  0  0
    0.0000    1.7143    0.0000 C   0  0  0  0  0  0  0  0  0  0  0  0
    0.0000    3.2143    0.0000 C   0  0  0  0  0  0  0  0  0  0  0  0
   -1.2990    3.9643    0.0000 C   0  0  0  0  0  0  0  0  0  0  0  0
   -2.5981    3.2143    0.0000 C   0  0  0  0  0  0  0  0  0  0  0  0
   -2.5981    1.7143    0.0000 C   0  0  0  0  0  0  0  0  0  0  0  0
   -2.5981   -1.2857    0.0000 C   0  0  0  0  0  0  0  0  0  0  0  0
   -3.8971   -0.5357    0.0000 C   0  0  0  0  0  0  0  0  0  0  0  0
   -5.1962   -1.2857    0.0000 C   0  0  0  0  0  0  0  0  0  0  0  0
   -5.1962   -2.7857    0.0000 C   0  0  0  0  0  0  0  0  0  0  0  0
   -3.8971   -3.5357    0.0000 C   0  0  0  0  0  0  0  0  0  0  0  0
   -2.5981   -2.7857    0.0000 C   0  0  0  0  0  0  0  0  0  0  0  0
    1.2990   -0.5357    0.0000 P   0  0  0  0  0  0  0  0  0  0  0  0
    2.5981   -1.2857    0.0000 C   0  0  0  0  0  0  0  0  0  0  0  0
    2.5981   -2.7857    0.0000 C   0  0  0  0  0  0  0  0  0  0  0  0
    3.8971   -3.5357    0.0000 C   0  0  0  0  0  0  0  0  0  0  0  0
    5.1962   -2.7857    0.0000 C   0  0  0  0  0  0  0  0  0  0  0  0
    5.1962   -1.2857    0.0000 C   0  0  0  0  0  0  0  0  0  0  0  0
    3.8971   -0.5357    0.0000 C   0  0  0  0  0  0  0  0  0  0  0  0
    1.2990    0.9643    0.0000 C   0  0  0  0  0  0  0  0  0  0  0  0
    2.5981    1.7143    0.0000 C   0  0  0  0  0  0  0  0  0  0  0  0
    2.5981    3.2143    0.0000 C   0  0  0  0  0  0  0  0  0  0  0  0
    1.2990    3.9643    0.0000 C   0  0  0  0  0  0  0  0  0  0  0  0
    0.0000    3.2143    0.0000 C   0  0  0  0  0  0  0  0  0  0  0  0
    0.0000    1.7143    0.0000 C   0  0  0  0  0  0  0  0  0  0  0  0
  1  2  1  0
  2  3  1  0
  3  4  1  0
  4  5  2  0
  5  6  1  0
  6  7  2  0
  7  8  1  0
  8  9  2  0
  3 10  1  0
 10 11  2  0
 11 12  1  0
 12 13  2  0
 13 14  1  0
 14 15  2  0
  2 16  1  0
 16 17  1  0
 17 18  2  0
 18 19  1  0
 19 20  2  0
 20 21  1  0
 21 22  2  0
 16 23  1  0
 23 24  2  0
 24 25  1  0
 25 26  2  0
 26 27  1  0
 27 28  2  0
  9  4  1  0
 15 10  1  0
 22 17  1  0
 28 23  1  0
M  END
>  <linear_selectivity>  (823) 
43

>  <denticity>  (823) 
2

>  <ligand_class>  (823) 
diphosphine

$$$$
dppe_100C_hexane
     RDKit          2D

 28 31  0  0  0  0  0  0  0  0999 V2000
   -0.0000   -2.7857    0.0000 C   0  0  0  0  0  0  0  0  0  0  0  0
   -0.0000   -1.2857    0.0000 C   0  0  0  0  0  0  0  0  0  0  0  0
   -1.2990   -0.5357    0.0000 P   0  0  0  0  0  0  0  0  0  0  0  0
   -1.2990    0.9643    0.0000 C   0  0  0  0  0  0  0  0  0  0  0  0
    0.0000    1.7143    0.0000 C   0  0  0  0  0  0  0  0  0  0  0  0
    0.0000    3.2143    0.0000 C   0  0  0  0  0  0  0  0  0  0  0  0
   -1.2990    3.9643    0.0000 C   0  0  0  0  0  0  0  0  0  0  0  0
   -2.5981    3.2143    0.0000 C   0  0  0  0  0  0  0  0  0  0  0  0
   -2.5981    1.7143    0.0000 C   0  0  0  0  0  0  0  0  0  0  0  0
   -2.5981   -1.2857    0.0000 C   0  0  0  0  0  0  0  0  0  0  0  0
   -3.8971   -0.5357    0.0000 C   0  0  0  0  0  0  0  0  0  0  0  0
   -5.1962   -1.2857    0.0000 C   0  0  0  0  0  0  0  0  0  0  0  0
   -5.1962   -2.7857    0.0000 C   0  0  0  0  0  0  0  0  0  0  0  0
   -3.8971   -3.5357    0.0000 C   0  0  0  0  0  0  0  0  0  0  0  0
   -2.5981   -2.7857    0.0000 C   0  0  0  0  0  0  0  0  0  0  0  0
    1.2990   -0.5357    0.0000 P   0  0  0  0  0  0  0  0  0  0  0  0
    2.5981   -1.2857    0.0000 C   0  0  0  0  0  0  0  0  0  0  0  0
    2.5981   -2.7857    0.0000 C   0  0  0  0  0  0  0  0  0  0  0  0
    3.8971   -3.5357    0.0000 C   0  0  0  0  0  0  0  0  0  0  0  0
    5.1962   -2.7857    0.0000 C   0  0  0  0  0  0  0  0  0  0  0  0
    5.1962   -1.2857    0.0000 C   0  0  0  0  0  0  0  0  0  0  0  0
    3.8971   -0.5357    0.0000 C   0  0  0  0  0  0  0  0  0  0  0  0
    1.2990    0.9643    0.0000 C   0  0  0  0  0  0  0  0  0  0  0  0
    2.5981    1.7143    0.0000 C   0  0  0  0  0  0  0  0  0  0  0  0
    2.5981    3.2143    0.0000 C   0  0  0  0  0  0  0  0  0  0  0  0
    1.2990    3.9643    0.0000 C   0  0  0  0  0  0  0  0  0  0  0  0
    0.0000    3.2143    0.0000 C   0  0  0  0  0  0  0  0  0  0  0  0
    0.0000    1.7143    0.0000 C   0  0  0  0  0  0  0  0  0  0  0  0
  1  2  1  0
  2  3  1  0
  3  4  1  0
  4  5  2  0
  5  6  1  0
  6  7  2  0
  7  8  1  0
  8  9  2  0
  3 10  1  0
 10 11  2  0
 11 12  1  0
 12 13  2  0
 13 14  1  0
 14 15  2  0
  2 16  1  0
 16 17  1  0
 17 18  2  0
 18 19  1  0
 19 20  2  0
 20 21  1  0
 21 22  2  0
 16 23  1  0
 23 24  2  0
 24 25  1  0
 25 26  2  0
 26 27  1  0
 27 28  2  0
  9  4  1  0
 15 10  1  0
 22 17  1  0
 28 23  1  0
M  END
>  <linear_selectivity>  (824) 
47

>  <denticity>  (824) 
2

>  <ligand_class>  (824) 
diphosphine

$$$$
dppe_100C_benzene
     RDKit          2D

 28 31  0  0  0  0  0  0  0  0999 V2000
   -0.0000   -2.7857    0.0000 C   0  0  0  0  0  0  0  0  0  0  0  0
   -0.0000   -1.2857    0.0000 C   0  0  0  0  0  0  0  0  0  0  0  0
   -1.2990   -0.5357    0.0000 P   0  0  0  0  0  0  0  0  0  0  0  0
   -1.2990    0.9643    0.0000 C   0  0  0  0  0  0  0  0  0  0  0  0
    0.0000    1.7143    0.0000 C   0  0  0  0  0  0  0  0  0  0  0  0
    0.0000    3.2143    0.0000 C   0  0  0  0  0  0  0  0  0  0  0  0
   -1.2990    3.9643    0.0000 C   0  0  0  0  0  0  0  0  0  0  0  0
   -2.5981    3.2143    0.0000 C   0  0  0  0  0  0  0  0  0  0  0  0
   -2.5981    1.7143    0.0000 C   0  0  0  0  0  0  0  0  0  0  0  0
   -2.5981   -1.2857    0.0000 C   0  0  0  0  0  0  0  0  0  0  0  0
   -3.8971   -0.5357    0.0000 C   0  0  0  0  0  0  0  0  0  0  0  0
   -5.1962   -1.2857    0.0000 C   0  0  0  0  0  0  0  0  0  0  0  0
   -5.1962   -2.7857    0.0000 C   0  0  0  0  0  0  0  0  0  0  0  0
   -3.8971   -3.5357    0.0000 C   0  0  0  0  0  0  0  0  0  0  0  0
   -2.5981   -2.7857    0.0000 C   0  0  0  0  0  0  0  0  0  0  0  0
    1.2990   -0.5357    0.0000 P   0  0  0  0  0  0  0  0  0  0  0  0
    2.5981   -1.2857    0.0000 C   0  0  0  0  0  0  0  0  0  0  0  0
    2.5981   -2.7857    0.0000 C   0  0  0  0  0  0  0  0  0  0  0  0
    3.8971   -3.5357    0.0000 C   0  0  0  0  0  0  0  0  0  0  0  0
    5.1962   -2.7857    0.0000 C   0  0  0  0  0  0  0  0  0  0  0  0
    5.1962   -1.2857    0.0000 C   0  0  0  0  0  0  0  0  0  0  0  0
    3.8971   -0.5357    0.0000 C   0  0  0  0  0  0  0  0  0  0  0  0
    1.2990    0.9643    0.0000 C   0  0  0  0  0  0  0  0  0  0  0  0
    2.5981    1.7143    0.0000 C   0  0  0  0  0  0  0  0  0  0  0  0
    2.5981    3.2143    0.0000 C   0  0  0  0  0  0  0  0  0  0  0  0
    1.2990    3.9643    0.0000 C   0  0  0  0  0  0  0  0  0  0  0  0
    0.0000    3.2143    0.0000 C   0  0  0  0  0  0  0  0  0  0  0  0
    0.0000    1.7143    0.0000 C   0  0  0  0  0  0  0  0  0  0  0  0
  1  2  1  0
  2  3  1  0
  3  4  1  0
  4  5  2  0
  5  6  1  0
  6  7  2  0
  7  8  1  0
  8  9  2  0
  3 10  1  0
 10 11  2  0
 11 12  1  0
 12 13  2  0
 13 14  1  0
 14 15  2  0
  2 16  1  0
 16 17  1  0
 17 18  2  0
 18 19  1  0
 19 20  2  0
 20 21  1  0
 21 22  2  0
 16 23  1  0
 23 24  2  0
 24 25  1  0
 25 26  2  0
 26 27  1  0
 27 28  2  0
  9  4  1  0
 15 10  1  0
 22 17  1  0
 28 23  1  0
M  END
>  <linear_selectivity>  (825) 
46

>  <denticity>  (825) 
2

>  <ligand_class>  (825) 
diphosphine

$$$$
dppe_100C_xylene
     RDKit          2D

 28 31  0  0  0  0  0  0  0  0999 V2000
   -0.0000   -2.7857    0.0000 C   0  0  0  0  0  0  0  0  0  0  0  0
   -0.0000   -1.2857    0.0000 C   0  0  0  0  0  0  0  0  0  0  0  0
   -1.2990   -0.5357    0.0000 P   0  0  0  0  0  0  0  0  0  0  0  0
   -1.2990    0.9643    0.0000 C   0  0  0  0  0  0  0  0  0  0  0  0
    0.0000    1.7143    0.0000 C   0  0  0  0  0  0  0  0  0  0  0  0
    0.0000    3.2143    0.0000 C   0  0  0  0  0  0  0  0  0  0  0  0
   -1.2990    3.9643    0.0000 C   0  0  0  0  0  0  0  0  0  0  0  0
   -2.5981    3.2143    0.0000 C   0  0  0  0  0  0  0  0  0  0  0  0
   -2.5981    1.7143    0.0000 C   0  0  0  0  0  0  0  0  0  0  0  0
   -2.5981   -1.2857    0.0000 C   0  0  0  0  0  0  0  0  0  0  0  0
   -3.8971   -0.5357    0.0000 C   0  0  0  0  0  0  0  0  0  0  0  0
   -5.1962   -1.2857    0.0000 C   0  0  0  0  0  0  0  0  0  0  0  0
   -5.1962   -2.7857    0.0000 C   0  0  0  0  0  0  0  0  0  0  0  0
   -3.8971   -3.5357    0.0000 C   0  0  0  0  0  0  0  0  0  0  0  0
   -2.5981   -2.7857    0.0000 C   0  0  0  0  0  0  0  0  0  0  0  0
    1.2990   -0.5357    0.0000 P   0  0  0  0  0  0  0  0  0  0  0  0
    2.5981   -1.2857    0.0000 C   0  0  0  0  0  0  0  0  0  0  0  0
    2.5981   -2.7857    0.0000 C   0  0  0  0  0  0  0  0  0  0  0  0
    3.8971   -3.5357    0.0000 C   0  0  0  0  0  0  0  0  0  0  0  0
    5.1962   -2.7857    0.0000 C   0  0  0  0  0  0  0  0  0  0  0  0
    5.1962   -1.2857    0.0000 C   0  0  0  0  0  0  0  0  0  0  0  0
    3.8971   -0.5357    0.0000 C   0  0  0  0  0  0  0  0  0  0  0  0
    1.2990    0.9643    0.0000 C   0  0  0  0  0  0  0  0  0  0  0  0
    2.5981    1.7143    0.0000 C   0  0  0  0  0  0  0  0  0  0  0  0
    2.5981    3.2143    0.0000 C   0  0  0  0  0  0  0  0  0  0  0  0
    1.2990    3.9643    0.0000 C   0  0  0  0  0  0  0  0  0  0  0  0
    0.0000    3.2143    0.0000 C   0  0  0  0  0  0  0  0  0  0  0  0
    0.0000    1.7143    0.0000 C   0  0  0  0  0  0  0  0  0  0  0  0
  1  2  1  0
  2  3  1  0
  3  4  1  0
  4  5  2  0
  5  6  1  0
  6  7  2  0
  7  8  1  0
  8  9  2  0
  3 10  1  0
 10 11  2  0
 11 12  1  0
 12 13  2  0
 13 14  1  0
 14 15  2  0
  2 16  1  0
 16 17  1  0
 17 18  2  0
 18 19  1  0
 19 20  2  0
 20 21  1  0
 21 22  2  0
 16 23  1  0
 23 24  2  0
 24 25  1  0
 25 26  2  0
 26 27  1  0
 27 28  2  0
  9  4  1  0
 15 10  1  0
 22 17  1  0
 28 23  1  0
M  END
>  <linear_selectivity>  (826) 
46

>  <denticity>  (826) 
2

>  <ligand_class>  (826) 
diphosphine

$$$$
dppe_110C_toluene
     RDKit          2D

 28 31  0  0  0  0  0  0  0  0999 V2000
   -0.0000   -2.7857    0.0000 C   0  0  0  0  0  0  0  0  0  0  0  0
   -0.0000   -1.2857    0.0000 C   0  0  0  0  0  0  0  0  0  0  0  0
   -1.2990   -0.5357    0.0000 P   0  0  0  0  0  0  0  0  0  0  0  0
   -1.2990    0.9643    0.0000 C   0  0  0  0  0  0  0  0  0  0  0  0
    0.0000    1.7143    0.0000 C   0  0  0  0  0  0  0  0  0  0  0  0
    0.0000    3.2143    0.0000 C   0  0  0  0  0  0  0  0  0  0  0  0
   -1.2990    3.9643    0.0000 C   0  0  0  0  0  0  0  0  0  0  0  0
   -2.5981    3.2143    0.0000 C   0  0  0  0  0  0  0  0  0  0  0  0
   -2.5981    1.7143    0.0000 C   0  0  0  0  0  0  0  0  0  0  0  0
   -2.5981   -1.2857    0.0000 C   0  0  0  0  0  0  0  0  0  0  0  0
   -3.8971   -0.5357    0.0000 C   0  0  0  0  0  0  0  0  0  0  0  0
   -5.1962   -1.2857    0.0000 C   0  0  0  0  0  0  0  0  0  0  0  0
   -5.1962   -2.7857    0.0000 C   0  0  0  0  0  0  0  0  0  0  0  0
   -3.8971   -3.5357    0.0000 C   0  0  0  0  0  0  0  0  0  0  0  0
   -2.5981   -2.7857    0.0000 C   0  0  0  0  0  0  0  0  0  0  0  0
    1.2990   -0.5357    0.0000 P   0  0  0  0  0  0  0  0  0  0  0  0
    2.5981   -1.2857    0.0000 C   0  0  0  0  0  0  0  0  0  0  0  0
    2.5981   -2.7857    0.0000 C   0  0  0  0  0  0  0  0  0  0  0  0
    3.8971   -3.5357    0.0000 C   0  0  0  0  0  0  0  0  0  0  0  0
    5.1962   -2.7857    0.0000 C   0  0  0  0  0  0  0  0  0  0  0  0
    5.1962   -1.2857    0.0000 C   0  0  0  0  0  0  0  0  0  0  0  0
    3.8971   -0.5357    0.0000 C   0  0  0  0  0  0  0  0  0  0  0  0
    1.2990    0.9643    0.0000 C   0  0  0  0  0  0  0  0  0  0  0  0
    2.5981    1.7143    0.0000 C   0  0  0  0  0  0  0  0  0  0  0  0
    2.5981    3.2143    0.0000 C   0  0  0  0  0  0  0  0  0  0  0  0
    1.2990    3.9643    0.0000 C   0  0  0  0  0  0  0  0  0  0  0  0
    0.0000    3.2143    0.0000 C   0  0  0  0  0  0  0  0  0  0  0  0
    0.0000    1.7143    0.0000 C   0  0  0  0  0  0  0  0  0  0  0  0
  1  2  1  0
  2  3  1  0
  3  4  1  0
  4  5  2  0
  5  6  1  0
  6  7  2  0
  7  8  1  0
  8  9  2  0
  3 10  1  0
 10 11  2  0
 11 12  1  0
 12 13  2  0
 13 14  1  0
 14 15  2  0
  2 16  1  0
 16 17  1  0
 17 18  2  0
 18 19  1  0
 19 20  2  0
 20 21  1  0
 21 22  2  0
 16 23  1  0
 23 24  2  0
 24 25  1  0
 25 26  2  0
 26 27  1  0
 27 28  2  0
  9  4  1  0
 15 10  1  0
 22 17  1  0
 28 23  1  0
M  END
>  <linear_selectivity>  (827) 
43

>  <denticity>  (827) 
2

>  <ligand_class>  (827) 
diphosphine

$$$$
dppe_110C_THF
     RDKit          2D

 28 31  0  0  0  0  0  0  0  0999 V2000
   -0.0000   -2.7857    0.0000 C   0  0  0  0  0  0  0  0  0  0  0  0
   -0.0000   -1.2857    0.0000 C   0  0  0  0  0  0  0  0  0  0  0  0
   -1.2990   -0.5357    0.0000 P   0  0  0  0  0  0  0  0  0  0  0  0
   -1.2990    0.9643    0.0000 C   0  0  0  0  0  0  0  0  0  0  0  0
    0.0000    1.7143    0.0000 C   0  0  0  0  0  0  0  0  0  0  0  0
    0.0000    3.2143    0.0000 C   0  0  0  0  0  0  0  0  0  0  0  0
   -1.2990    3.9643    0.0000 C   0  0  0  0  0  0  0  0  0  0  0  0
   -2.5981    3.2143    0.0000 C   0  0  0  0  0  0  0  0  0  0  0  0
   -2.5981    1.7143    0.0000 C   0  0  0  0  0  0  0  0  0  0  0  0
   -2.5981   -1.2857    0.0000 C   0  0  0  0  0  0  0  0  0  0  0  0
   -3.8971   -0.5357    0.0000 C   0  0  0  0  0  0  0  0  0  0  0  0
   -5.1962   -1.2857    0.0000 C   0  0  0  0  0  0  0  0  0  0  0  0
   -5.1962   -2.7857    0.0000 C   0  0  0  0  0  0  0  0  0  0  0  0
   -3.8971   -3.5357    0.0000 C   0  0  0  0  0  0  0  0  0  0  0  0
   -2.5981   -2.7857    0.0000 C   0  0  0  0  0  0  0  0  0  0  0  0
    1.2990   -0.5357    0.0000 P   0  0  0  0  0  0  0  0  0  0  0  0
    2.5981   -1.2857    0.0000 C   0  0  0  0  0  0  0  0  0  0  0  0
    2.5981   -2.7857    0.0000 C   0  0  0  0  0  0  0  0  0  0  0  0
    3.8971   -3.5357    0.0000 C   0  0  0  0  0  0  0  0  0  0  0  0
    5.1962   -2.7857    0.0000 C   0  0  0  0  0  0  0  0  0  0  0  0
    5.1962   -1.2857    0.0000 C   0  0  0  0  0  0  0  0  0  0  0  0
    3.8971   -0.5357    0.0000 C   0  0  0  0  0  0  0  0  0  0  0  0
    1.2990    0.9643    0.0000 C   0  0  0  0  0  0  0  0  0  0  0  0
    2.5981    1.7143    0.0000 C   0  0  0  0  0  0  0  0  0  0  0  0
    2.5981    3.2143    0.0000 C   0  0  0  0  0  0  0  0  0  0  0  0
    1.2990    3.9643    0.0000 C   0  0  0  0  0  0  0  0  0  0  0  0
    0.0000    3.2143    0.0000 C   0  0  0  0  0  0  0  0  0  0  0  0
    0.0000    1.7143    0.0000 C   0  0  0  0  0  0  0  0  0  0  0  0
  1  2  1  0
  2  3  1  0
  3  4  1  0
  4  5  2  0
  5  6  1  0
  6  7  2  0
  7  8  1  0
  8  9  2  0
  3 10  1  0
 10 11  2  0
 11 12  1  0
 12 13  2  0
 13 14  1  0
 14 15  2  0
  2 16  1  0
 16 17  1  0
 17 18  2  0
 18 19  1  0
 19 20  2  0
 20 21  1  0
 21 22  2  0
 16 23  1  0
 23 24  2  0
 24 25  1  0
 25 26  2  0
 26 27  1  0
 27 28  2  0
  9  4  1  0
 15 10  1  0
 22 17  1  0
 28 23  1  0
M  END
>  <linear_selectivity>  (828) 
44

>  <denticity>  (828) 
2

>  <ligand_class>  (828) 
diphosphine

$$$$
dppe_110C_dioxane
     RDKit          2D

 28 31  0  0  0  0  0  0  0  0999 V2000
   -0.0000   -2.7857    0.0000 C   0  0  0  0  0  0  0  0  0  0  0  0
   -0.0000   -1.2857    0.0000 C   0  0  0  0  0  0  0  0  0  0  0  0
   -1.2990   -0.5357    0.0000 P   0  0  0  0  0  0  0  0  0  0  0  0
   -1.2990    0.9643    0.0000 C   0  0  0  0  0  0  0  0  0  0  0  0
    0.0000    1.7143    0.0000 C   0  0  0  0  0  0  0  0  0  0  0  0
    0.0000    3.2143    0.0000 C   0  0  0  0  0  0  0  0  0  0  0  0
   -1.2990    3.9643    0.0000 C   0  0  0  0  0  0  0  0  0  0  0  0
   -2.5981    3.2143    0.0000 C   0  0  0  0  0  0  0  0  0  0  0  0
   -2.5981    1.7143    0.0000 C   0  0  0  0  0  0  0  0  0  0  0  0
   -2.5981   -1.2857    0.0000 C   0  0  0  0  0  0  0  0  0  0  0  0
   -3.8971   -0.5357    0.0000 C   0  0  0  0  0  0  0  0  0  0  0  0
   -5.1962   -1.2857    0.0000 C   0  0  0  0  0  0  0  0  0  0  0  0
   -5.1962   -2.7857    0.0000 C   0  0  0  0  0  0  0  0  0  0  0  0
   -3.8971   -3.5357    0.0000 C   0  0  0  0  0  0  0  0  0  0  0  0
   -2.5981   -2.7857    0.0000 C   0  0  0  0  0  0  0  0  0  0  0  0
    1.2990   -0.5357    0.0000 P   0  0  0  0  0  0  0  0  0  0  0  0
    2.5981   -1.2857    0.0000 C   0  0  0  0  0  0  0  0  0  0  0  0
    2.5981   -2.7857    0.0000 C   0  0  0  0  0  0  0  0  0  0  0  0
    3.8971   -3.5357    0.0000 C   0  0  0  0  0  0  0  0  0  0  0  0
    5.1962   -2.7857    0.0000 C   0  0  0  0  0  0  0  0  0  0  0  0
    5.1962   -1.2857    0.0000 C   0  0  0  0  0  0  0  0  0  0  0  0
    3.8971   -0.5357    0.0000 C   0  0  0  0  0  0  0  0  0  0  0  0
    1.2990    0.9643    0.0000 C   0  0  0  0  0  0  0  0  0  0  0  0
    2.5981    1.7143    0.0000 C   0  0  0  0  0  0  0  0  0  0  0  0
    2.5981    3.2143    0.0000 C   0  0  0  0  0  0  0  0  0  0  0  0
    1.2990    3.9643    0.0000 C   0  0  0  0  0  0  0  0  0  0  0  0
    0.0000    3.2143    0.0000 C   0  0  0  0  0  0  0  0  0  0  0  0
    0.0000    1.7143    0.0000 C   0  0  0  0  0  0  0  0  0  0  0  0
  1  2  1  0
  2  3  1  0
  3  4  1  0
  4  5  2  0
  5  6  1  0
  6  7  2  0
  7  8  1  0
  8  9  2  0
  3 10  1  0
 10 11  2  0
 11 12  1  0
 12 13  2  0
 13 14  1  0
 14 15  2  0
  2 16  1  0
 16 17  1  0
 17 18  2  0
 18 19  1  0
 19 20  2  0
 20 21  1  0
 21 22  2  0
 16 23  1  0
 23 24  2  0
 24 25  1  0
 25 26  2  0
 26 27  1  0
 27 28  2  0
  9  4  1  0
 15 10  1  0
 22 17  1  0
 28 23  1  0
M  END
>  <linear_selectivity>  (829) 
44

>  <denticity>  (829) 
2

>  <ligand_class>  (829) 
diphosphine

$$$$
dppe_110C_benzene
     RDKit          2D

 28 31  0  0  0  0  0  0  0  0999 V2000
   -0.0000   -2.7857    0.0000 C   0  0  0  0  0  0  0  0  0  0  0  0
   -0.0000   -1.2857    0.0000 C   0  0  0  0  0  0  0  0  0  0  0  0
   -1.2990   -0.5357    0.0000 P   0  0  0  0  0  0  0  0  0  0  0  0
   -1.2990    0.9643    0.0000 C   0  0  0  0  0  0  0  0  0  0  0  0
    0.0000    1.7143    0.0000 C   0  0  0  0  0  0  0  0  0  0  0  0
    0.0000    3.2143    0.0000 C   0  0  0  0  0  0  0  0  0  0  0  0
   -1.2990    3.9643    0.0000 C   0  0  0  0  0  0  0  0  0  0  0  0
   -2.5981    3.2143    0.0000 C   0  0  0  0  0  0  0  0  0  0  0  0
   -2.5981    1.7143    0.0000 C   0  0  0  0  0  0  0  0  0  0  0  0
   -2.5981   -1.2857    0.0000 C   0  0  0  0  0  0  0  0  0  0  0  0
   -3.8971   -0.5357    0.0000 C   0  0  0  0  0  0  0  0  0  0  0  0
   -5.1962   -1.2857    0.0000 C   0  0  0  0  0  0  0  0  0  0  0  0
   -5.1962   -2.7857    0.0000 C   0  0  0  0  0  0  0  0  0  0  0  0
   -3.8971   -3.5357    0.0000 C   0  0  0  0  0  0  0  0  0  0  0  0
   -2.5981   -2.7857    0.0000 C   0  0  0  0  0  0  0  0  0  0  0  0
    1.2990   -0.5357    0.0000 P   0  0  0  0  0  0  0  0  0  0  0  0
    2.5981   -1.2857    0.0000 C   0  0  0  0  0  0  0  0  0  0  0  0
    2.5981   -2.7857    0.0000 C   0  0  0  0  0  0  0  0  0  0  0  0
    3.8971   -3.5357    0.0000 C   0  0  0  0  0  0  0  0  0  0  0  0
    5.1962   -2.7857    0.0000 C   0  0  0  0  0  0  0  0  0  0  0  0
    5.1962   -1.2857    0.0000 C   0  0  0  0  0  0  0  0  0  0  0  0
    3.8971   -0.5357    0.0000 C   0  0  0  0  0  0  0  0  0  0  0  0
    1.2990    0.9643    0.0000 C   0  0  0  0  0  0  0  0  0  0  0  0
    2.5981    1.7143    0.0000 C   0  0  0  0  0  0  0  0  0  0  0  0
    2.5981    3.2143    0.0000 C   0  0  0  0  0  0  0  0  0  0  0  0
    1.2990    3.9643    0.0000 C   0  0  0  0  0  0  0  0  0  0  0  0
    0.0000    3.2143    0.0000 C   0  0  0  0  0  0  0  0  0  0  0  0
    0.0000    1.7143    0.0000 C   0  0  0  0  0  0  0  0  0  0  0  0
  1  2  1  0
  2  3  1  0
  3  4  1  0
  4  5  2  0
  5  6  1  0
  6  7  2  0
  7  8  1  0
  8  9  2  0
  3 10  1  0
 10 11  2  0
 11 12  1  0
 12 13  2  0
 13 14  1  0
 14 15  2  0
  2 16  1  0
 16 17  1  0
 17 18  2  0
 18 19  1  0
 19 20  2  0
 20 21  1  0
 21 22  2  0
 16 23  1  0
 23 24  2  0
 24 25  1  0
 25 26  2  0
 26 27  1  0
 27 28  2  0
  9  4  1  0
 15 10  1  0
 22 17  1  0
 28 23  1  0
M  END
>  <linear_selectivity>  (830) 
46

>  <denticity>  (830) 
2

>  <ligand_class>  (830) 
diphosphine

$$$$
dppe_120C_toluene
     RDKit          2D

 28 31  0  0  0  0  0  0  0  0999 V2000
   -0.0000   -2.7857    0.0000 C   0  0  0  0  0  0  0  0  0  0  0  0
   -0.0000   -1.2857    0.0000 C   0  0  0  0  0  0  0  0  0  0  0  0
   -1.2990   -0.5357    0.0000 P   0  0  0  0  0  0  0  0  0  0  0  0
   -1.2990    0.9643    0.0000 C   0  0  0  0  0  0  0  0  0  0  0  0
    0.0000    1.7143    0.0000 C   0  0  0  0  0  0  0  0  0  0  0  0
    0.0000    3.2143    0.0000 C   0  0  0  0  0  0  0  0  0  0  0  0
   -1.2990    3.9643    0.0000 C   0  0  0  0  0  0  0  0  0  0  0  0
   -2.5981    3.2143    0.0000 C   0  0  0  0  0  0  0  0  0  0  0  0
   -2.5981    1.7143    0.0000 C   0  0  0  0  0  0  0  0  0  0  0  0
   -2.5981   -1.2857    0.0000 C   0  0  0  0  0  0  0  0  0  0  0  0
   -3.8971   -0.5357    0.0000 C   0  0  0  0  0  0  0  0  0  0  0  0
   -5.1962   -1.2857    0.0000 C   0  0  0  0  0  0  0  0  0  0  0  0
   -5.1962   -2.7857    0.0000 C   0  0  0  0  0  0  0  0  0  0  0  0
   -3.8971   -3.5357    0.0000 C   0  0  0  0  0  0  0  0  0  0  0  0
   -2.5981   -2.7857    0.0000 C   0  0  0  0  0  0  0  0  0  0  0  0
    1.2990   -0.5357    0.0000 P   0  0  0  0  0  0  0  0  0  0  0  0
    2.5981   -1.2857    0.0000 C   0  0  0  0  0  0  0  0  0  0  0  0
    2.5981   -2.7857    0.0000 C   0  0  0  0  0  0  0  0  0  0  0  0
    3.8971   -3.5357    0.0000 C   0  0  0  0  0  0  0  0  0  0  0  0
    5.1962   -2.7857    0.0000 C   0  0  0  0  0  0  0  0  0  0  0  0
    5.1962   -1.2857    0.0000 C   0  0  0  0  0  0  0  0  0  0  0  0
    3.8971   -0.5357    0.0000 C   0  0  0  0  0  0  0  0  0  0  0  0
    1.2990    0.9643    0.0000 C   0  0  0  0  0  0  0  0  0  0  0  0
    2.5981    1.7143    0.0000 C   0  0  0  0  0  0  0  0  0  0  0  0
    2.5981    3.2143    0.0000 C   0  0  0  0  0  0  0  0  0  0  0  0
    1.2990    3.9643    0.0000 C   0  0  0  0  0  0  0  0  0  0  0  0
    0.0000    3.2143    0.0000 C   0  0  0  0  0  0  0  0  0  0  0  0
    0.0000    1.7143    0.0000 C   0  0  0  0  0  0  0  0  0  0  0  0
  1  2  1  0
  2  3  1  0
  3  4  1  0
  4  5  2  0
  5  6  1  0
  6  7  2  0
  7  8  1  0
  8  9  2  0
  3 10  1  0
 10 11  2  0
 11 12  1  0
 12 13  2  0
 13 14  1  0
 14 15  2  0
  2 16  1  0
 16 17  1  0
 17 18  2  0
 18 19  1  0
 19 20  2  0
 20 21  1  0
 21 22  2  0
 16 23  1  0
 23 24  2  0
 24 25  1  0
 25 26  2  0
 26 27  1  0
 27 28  2  0
  9  4  1  0
 15 10  1  0
 22 17  1  0
 28 23  1  0
M  END
>  <linear_selectivity>  (831) 
43

>  <denticity>  (831) 
2

>  <ligand_class>  (831) 
diphosphine

$$$$
dppe_120C_dioxane
     RDKit          2D

 28 31  0  0  0  0  0  0  0  0999 V2000
   -0.0000   -2.7857    0.0000 C   0  0  0  0  0  0  0  0  0  0  0  0
   -0.0000   -1.2857    0.0000 C   0  0  0  0  0  0  0  0  0  0  0  0
   -1.2990   -0.5357    0.0000 P   0  0  0  0  0  0  0  0  0  0  0  0
   -1.2990    0.9643    0.0000 C   0  0  0  0  0  0  0  0  0  0  0  0
    0.0000    1.7143    0.0000 C   0  0  0  0  0  0  0  0  0  0  0  0
    0.0000    3.2143    0.0000 C   0  0  0  0  0  0  0  0  0  0  0  0
   -1.2990    3.9643    0.0000 C   0  0  0  0  0  0  0  0  0  0  0  0
   -2.5981    3.2143    0.0000 C   0  0  0  0  0  0  0  0  0  0  0  0
   -2.5981    1.7143    0.0000 C   0  0  0  0  0  0  0  0  0  0  0  0
   -2.5981   -1.2857    0.0000 C   0  0  0  0  0  0  0  0  0  0  0  0
   -3.8971   -0.5357    0.0000 C   0  0  0  0  0  0  0  0  0  0  0  0
   -5.1962   -1.2857    0.0000 C   0  0  0  0  0  0  0  0  0  0  0  0
   -5.1962   -2.7857    0.0000 C   0  0  0  0  0  0  0  0  0  0  0  0
   -3.8971   -3.5357    0.0000 C   0  0  0  0  0  0  0  0  0  0  0  0
   -2.5981   -2.7857    0.0000 C   0  0  0  0  0  0  0  0  0  0  0  0
    1.2990   -0.5357    0.0000 P   0  0  0  0  0  0  0  0  0  0  0  0
    2.5981   -1.2857    0.0000 C   0  0  0  0  0  0  0  0  0  0  0  0
    2.5981   -2.7857    0.0000 C   0  0  0  0  0  0  0  0  0  0  0  0
    3.8971   -3.5357    0.0000 C   0  0  0  0  0  0  0  0  0  0  0  0
    5.1962   -2.7857    0.0000 C   0  0  0  0  0  0  0  0  0  0  0  0
    5.1962   -1.2857    0.0000 C   0  0  0  0  0  0  0  0  0  0  0  0
    3.8971   -0.5357    0.0000 C   0  0  0  0  0  0  0  0  0  0  0  0
    1.2990    0.9643    0.0000 C   0  0  0  0  0  0  0  0  0  0  0  0
    2.5981    1.7143    0.0000 C   0  0  0  0  0  0  0  0  0  0  0  0
    2.5981    3.2143    0.0000 C   0  0  0  0  0  0  0  0  0  0  0  0
    1.2990    3.9643    0.0000 C   0  0  0  0  0  0  0  0  0  0  0  0
    0.0000    3.2143    0.0000 C   0  0  0  0  0  0  0  0  0  0  0  0
    0.0000    1.7143    0.0000 C   0  0  0  0  0  0  0  0  0  0  0  0
  1  2  1  0
  2  3  1  0
  3  4  1  0
  4  5  2  0
  5  6  1  0
  6  7  2  0
  7  8  1  0
  8  9  2  0
  3 10  1  0
 10 11  2  0
 11 12  1  0
 12 13  2  0
 13 14  1  0
 14 15  2  0
  2 16  1  0
 16 17  1  0
 17 18  2  0
 18 19  1  0
 19 20  2  0
 20 21  1  0
 21 22  2  0
 16 23  1  0
 23 24  2  0
 24 25  1  0
 25 26  2  0
 26 27  1  0
 27 28  2  0
  9  4  1  0
 15 10  1  0
 22 17  1  0
 28 23  1  0
M  END
>  <linear_selectivity>  (832) 
40

>  <denticity>  (832) 
2

>  <ligand_class>  (832) 
diphosphine

$$$$
dppe_120C_hexane
     RDKit          2D

 28 31  0  0  0  0  0  0  0  0999 V2000
   -0.0000   -2.7857    0.0000 C   0  0  0  0  0  0  0  0  0  0  0  0
   -0.0000   -1.2857    0.0000 C   0  0  0  0  0  0  0  0  0  0  0  0
   -1.2990   -0.5357    0.0000 P   0  0  0  0  0  0  0  0  0  0  0  0
   -1.2990    0.9643    0.0000 C   0  0  0  0  0  0  0  0  0  0  0  0
    0.0000    1.7143    0.0000 C   0  0  0  0  0  0  0  0  0  0  0  0
    0.0000    3.2143    0.0000 C   0  0  0  0  0  0  0  0  0  0  0  0
   -1.2990    3.9643    0.0000 C   0  0  0  0  0  0  0  0  0  0  0  0
   -2.5981    3.2143    0.0000 C   0  0  0  0  0  0  0  0  0  0  0  0
   -2.5981    1.7143    0.0000 C   0  0  0  0  0  0  0  0  0  0  0  0
   -2.5981   -1.2857    0.0000 C   0  0  0  0  0  0  0  0  0  0  0  0
   -3.8971   -0.5357    0.0000 C   0  0  0  0  0  0  0  0  0  0  0  0
   -5.1962   -1.2857    0.0000 C   0  0  0  0  0  0  0  0  0  0  0  0
   -5.1962   -2.7857    0.0000 C   0  0  0  0  0  0  0  0  0  0  0  0
   -3.8971   -3.5357    0.0000 C   0  0  0  0  0  0  0  0  0  0  0  0
   -2.5981   -2.7857    0.0000 C   0  0  0  0  0  0  0  0  0  0  0  0
    1.2990   -0.5357    0.0000 P   0  0  0  0  0  0  0  0  0  0  0  0
    2.5981   -1.2857    0.0000 C   0  0  0  0  0  0  0  0  0  0  0  0
    2.5981   -2.7857    0.0000 C   0  0  0  0  0  0  0  0  0  0  0  0
    3.8971   -3.5357    0.0000 C   0  0  0  0  0  0  0  0  0  0  0  0
    5.1962   -2.7857    0.0000 C   0  0  0  0  0  0  0  0  0  0  0  0
    5.1962   -1.2857    0.0000 C   0  0  0  0  0  0  0  0  0  0  0  0
    3.8971   -0.5357    0.0000 C   0  0  0  0  0  0  0  0  0  0  0  0
    1.2990    0.9643    0.0000 C   0  0  0  0  0  0  0  0  0  0  0  0
    2.5981    1.7143    0.0000 C   0  0  0  0  0  0  0  0  0  0  0  0
    2.5981    3.2143    0.0000 C   0  0  0  0  0  0  0  0  0  0  0  0
    1.2990    3.9643    0.0000 C   0  0  0  0  0  0  0  0  0  0  0  0
    0.0000    3.2143    0.0000 C   0  0  0  0  0  0  0  0  0  0  0  0
    0.0000    1.7143    0.0000 C   0  0  0  0  0  0  0  0  0  0  0  0
  1  2  1  0
  2  3  1  0
  3  4  1  0
  4  5  2  0
  5  6  1  0
  6  7  2  0
  7  8  1  0
  8  9  2  0
  3 10  1  0
 10 11  2  0
 11 12  1  0
 12 13  2  0
 13 14  1  0
 14 15  2  0
  2 16  1  0
 16 17  1  0
 17 18  2  0
 18 19  1  0
 19 20  2  0
 20 21  1  0
 21 22  2  0
 16 23  1  0
 23 24  2  0
 24 25  1  0
 25 26  2  0
 26 27  1  0
 27 28  2  0
  9  4  1  0
 15 10  1  0
 22 17  1  0
 28 23  1  0
M  END
>  <linear_selectivity>  (833) 
40

>  <denticity>  (833) 
2

>  <ligand_class>  (833) 
diphosphine

$$$$
dppe_120C_benzene
     RDKit          2D

 28 31  0  0  0  0  0  0  0  0999 V2000
   -0.0000   -2.7857    0.0000 C   0  0  0  0  0  0  0  0  0  0  0  0
   -0.0000   -1.2857    0.0000 C   0  0  0  0  0  0  0  0  0  0  0  0
   -1.2990   -0.5357    0.0000 P   0  0  0  0  0  0  0  0  0  0  0  0
   -1.2990    0.9643    0.0000 C   0  0  0  0  0  0  0  0  0  0  0  0
    0.0000    1.7143    0.0000 C   0  0  0  0  0  0  0  0  0  0  0  0
    0.0000    3.2143    0.0000 C   0  0  0  0  0  0  0  0  0  0  0  0
   -1.2990    3.9643    0.0000 C   0  0  0  0  0  0  0  0  0  0  0  0
   -2.5981    3.2143    0.0000 C   0  0  0  0  0  0  0  0  0  0  0  0
   -2.5981    1.7143    0.0000 C   0  0  0  0  0  0  0  0  0  0  0  0
   -2.5981   -1.2857    0.0000 C   0  0  0  0  0  0  0  0  0  0  0  0
   -3.8971   -0.5357    0.0000 C   0  0  0  0  0  0  0  0  0  0  0  0
   -5.1962   -1.2857    0.0000 C   0  0  0  0  0  0  0  0  0  0  0  0
   -5.1962   -2.7857    0.0000 C   0  0  0  0  0  0  0  0  0  0  0  0
   -3.8971   -3.5357    0.0000 C   0  0  0  0  0  0  0  0  0  0  0  0
   -2.5981   -2.7857    0.0000 C   0  0  0  0  0  0  0  0  0  0  0  0
    1.2990   -0.5357    0.0000 P   0  0  0  0  0  0  0  0  0  0  0  0
    2.5981   -1.2857    0.0000 C   0  0  0  0  0  0  0  0  0  0  0  0
    2.5981   -2.7857    0.0000 C   0  0  0  0  0  0  0  0  0  0  0  0
    3.8971   -3.5357    0.0000 C   0  0  0  0  0  0  0  0  0  0  0  0
    5.1962   -2.7857    0.0000 C   0  0  0  0  0  0  0  0  0  0  0  0
    5.1962   -1.2857    0.0000 C   0  0  0  0  0  0  0  0  0  0  0  0
    3.8971   -0.5357    0.0000 C   0  0  0  0  0  0  0  0  0  0  0  0
    1.2990    0.9643    0.0000 C   0  0  0  0  0  0  0  0  0  0  0  0
    2.5981    1.7143    0.0000 C   0  0  0  0  0  0  0  0  0  0  0  0
    2.5981    3.2143    0.0000 C   0  0  0  0  0  0  0  0  0  0  0  0
    1.2990    3.9643    0.0000 C   0  0  0  0  0  0  0  0  0  0  0  0
    0.0000    3.2143    0.0000 C   0  0  0  0  0  0  0  0  0  0  0  0
    0.0000    1.7143    0.0000 C   0  0  0  0  0  0  0  0  0  0  0  0
  1  2  1  0
  2  3  1  0
  3  4  1  0
  4  5  2  0
  5  6  1  0
  6  7  2  0
  7  8  1  0
  8  9  2  0
  3 10  1  0
 10 11  2  0
 11 12  1  0
 12 13  2  0
 13 14  1  0
 14 15  2  0
  2 16  1  0
 16 17  1  0
 17 18  2  0
 18 19  1  0
 19 20  2  0
 20 21  1  0
 21 22  2  0
 16 23  1  0
 23 24  2  0
 24 25  1  0
 25 26  2  0
 26 27  1  0
 27 28  2  0
  9  4  1  0
 15 10  1  0
 22 17  1  0
 28 23  1  0
M  END
>  <linear_selectivity>  (834) 
42

>  <denticity>  (834) 
2

>  <ligand_class>  (834) 
diphosphine

$$$$
dppe_120C_xylene
     RDKit          2D

 28 31  0  0  0  0  0  0  0  0999 V2000
   -0.0000   -2.7857    0.0000 C   0  0  0  0  0  0  0  0  0  0  0  0
   -0.0000   -1.2857    0.0000 C   0  0  0  0  0  0  0  0  0  0  0  0
   -1.2990   -0.5357    0.0000 P   0  0  0  0  0  0  0  0  0  0  0  0
   -1.2990    0.9643    0.0000 C   0  0  0  0  0  0  0  0  0  0  0  0
    0.0000    1.7143    0.0000 C   0  0  0  0  0  0  0  0  0  0  0  0
    0.0000    3.2143    0.0000 C   0  0  0  0  0  0  0  0  0  0  0  0
   -1.2990    3.9643    0.0000 C   0  0  0  0  0  0  0  0  0  0  0  0
   -2.5981    3.2143    0.0000 C   0  0  0  0  0  0  0  0  0  0  0  0
   -2.5981    1.7143    0.0000 C   0  0  0  0  0  0  0  0  0  0  0  0
   -2.5981   -1.2857    0.0000 C   0  0  0  0  0  0  0  0  0  0  0  0
   -3.8971   -0.5357    0.0000 C   0  0  0  0  0  0  0  0  0  0  0  0
   -5.1962   -1.2857    0.0000 C   0  0  0  0  0  0  0  0  0  0  0  0
   -5.1962   -2.7857    0.0000 C   0  0  0  0  0  0  0  0  0  0  0  0
   -3.8971   -3.5357    0.0000 C   0  0  0  0  0  0  0  0  0  0  0  0
   -2.5981   -2.7857    0.0000 C   0  0  0  0  0  0  0  0  0  0  0  0
    1.2990   -0.5357    0.0000 P   0  0  0  0  0  0  0  0  0  0  0  0
    2.5981   -1.2857    0.0000 C   0  0  0  0  0  0  0  0  0  0  0  0
    2.5981   -2.7857    0.0000 C   0  0  0  0  0  0  0  0  0  0  0  0
    3.8971   -3.5357    0.0000 C   0  0  0  0  0  0  0  0  0  0  0  0
    5.1962   -2.7857    0.0000 C   0  0  0  0  0  0  0  0  0  0  0  0
    5.1962   -1.2857    0.0000 C   0  0  0  0  0  0  0  0  0  0  0  0
    3.8971   -0.5357    0.0000 C   0  0  0  0  0  0  0  0  0  0  0  0
    1.2990    0.9643    0.0000 C   0  0  0  0  0  0  0  0  0  0  0  0
    2.5981    1.7143    0.0000 C   0  0  0  0  0  0  0  0  0  0  0  0
    2.5981    3.2143    0.0000 C   0  0  0  0  0  0  0  0  0  0  0  0
    1.2990    3.9643    0.0000 C   0  0  0  0  0  0  0  0  0  0  0  0
    0.0000    3.2143    0.0000 C   0  0  0  0  0  0  0  0  0  0  0  0
    0.0000    1.7143    0.0000 C   0  0  0  0  0  0  0  0  0  0  0  0
  1  2  1  0
  2  3  1  0
  3  4  1  0
  4  5  2  0
  5  6  1  0
  6  7  2  0
  7  8  1  0
  8  9  2  0
  3 10  1  0
 10 11  2  0
 11 12  1  0
 12 13  2  0
 13 14  1  0
 14 15  2  0
  2 16  1  0
 16 17  1  0
 17 18  2  0
 18 19  1  0
 19 20  2  0
 20 21  1  0
 21 22  2  0
 16 23  1  0
 23 24  2  0
 24 25  1  0
 25 26  2  0
 26 27  1  0
 27 28  2  0
  9  4  1  0
 15 10  1  0
 22 17  1  0
 28 23  1  0
M  END
>  <linear_selectivity>  (835) 
42

>  <denticity>  (835) 
2

>  <ligand_class>  (835) 
diphosphine

$$$$
dppe_130C_toluene
     RDKit          2D

 28 31  0  0  0  0  0  0  0  0999 V2000
   -0.0000   -2.7857    0.0000 C   0  0  0  0  0  0  0  0  0  0  0  0
   -0.0000   -1.2857    0.0000 C   0  0  0  0  0  0  0  0  0  0  0  0
   -1.2990   -0.5357    0.0000 P   0  0  0  0  0  0  0  0  0  0  0  0
   -1.2990    0.9643    0.0000 C   0  0  0  0  0  0  0  0  0  0  0  0
    0.0000    1.7143    0.0000 C   0  0  0  0  0  0  0  0  0  0  0  0
    0.0000    3.2143    0.0000 C   0  0  0  0  0  0  0  0  0  0  0  0
   -1.2990    3.9643    0.0000 C   0  0  0  0  0  0  0  0  0  0  0  0
   -2.5981    3.2143    0.0000 C   0  0  0  0  0  0  0  0  0  0  0  0
   -2.5981    1.7143    0.0000 C   0  0  0  0  0  0  0  0  0  0  0  0
   -2.5981   -1.2857    0.0000 C   0  0  0  0  0  0  0  0  0  0  0  0
   -3.8971   -0.5357    0.0000 C   0  0  0  0  0  0  0  0  0  0  0  0
   -5.1962   -1.2857    0.0000 C   0  0  0  0  0  0  0  0  0  0  0  0
   -5.1962   -2.7857    0.0000 C   0  0  0  0  0  0  0  0  0  0  0  0
   -3.8971   -3.5357    0.0000 C   0  0  0  0  0  0  0  0  0  0  0  0
   -2.5981   -2.7857    0.0000 C   0  0  0  0  0  0  0  0  0  0  0  0
    1.2990   -0.5357    0.0000 P   0  0  0  0  0  0  0  0  0  0  0  0
    2.5981   -1.2857    0.0000 C   0  0  0  0  0  0  0  0  0  0  0  0
    2.5981   -2.7857    0.0000 C   0  0  0  0  0  0  0  0  0  0  0  0
    3.8971   -3.5357    0.0000 C   0  0  0  0  0  0  0  0  0  0  0  0
    5.1962   -2.7857    0.0000 C   0  0  0  0  0  0  0  0  0  0  0  0
    5.1962   -1.2857    0.0000 C   0  0  0  0  0  0  0  0  0  0  0  0
    3.8971   -0.5357    0.0000 C   0  0  0  0  0  0  0  0  0  0  0  0
    1.2990    0.9643    0.0000 C   0  0  0  0  0  0  0  0  0  0  0  0
    2.5981    1.7143    0.0000 C   0  0  0  0  0  0  0  0  0  0  0  0
    2.5981    3.2143    0.0000 C   0  0  0  0  0  0  0  0  0  0  0  0
    1.2990    3.9643    0.0000 C   0  0  0  0  0  0  0  0  0  0  0  0
    0.0000    3.2143    0.0000 C   0  0  0  0  0  0  0  0  0  0  0  0
    0.0000    1.7143    0.0000 C   0  0  0  0  0  0  0  0  0  0  0  0
  1  2  1  0
  2  3  1  0
  3  4  1  0
  4  5  2  0
  5  6  1  0
  6  7  2  0
  7  8  1  0
  8  9  2  0
  3 10  1  0
 10 11  2  0
 11 12  1  0
 12 13  2  0
 13 14  1  0
 14 15  2  0
  2 16  1  0
 16 17  1  0
 17 18  2  0
 18 19  1  0
 19 20  2  0
 20 21  1  0
 21 22  2  0
 16 23  1  0
 23 24  2  0
 24 25  1  0
 25 26  2  0
 26 27  1  0
 27 28  2  0
  9  4  1  0
 15 10  1  0
 22 17  1  0
 28 23  1  0
M  END
>  <linear_selectivity>  (836) 
38

>  <denticity>  (836) 
2

>  <ligand_class>  (836) 
diphosphine

$$$$
dppe_130C_THF
     RDKit          2D

 28 31  0  0  0  0  0  0  0  0999 V2000
   -0.0000   -2.7857    0.0000 C   0  0  0  0  0  0  0  0  0  0  0  0
   -0.0000   -1.2857    0.0000 C   0  0  0  0  0  0  0  0  0  0  0  0
   -1.2990   -0.5357    0.0000 P   0  0  0  0  0  0  0  0  0  0  0  0
   -1.2990    0.9643    0.0000 C   0  0  0  0  0  0  0  0  0  0  0  0
    0.0000    1.7143    0.0000 C   0  0  0  0  0  0  0  0  0  0  0  0
    0.0000    3.2143    0.0000 C   0  0  0  0  0  0  0  0  0  0  0  0
   -1.2990    3.9643    0.0000 C   0  0  0  0  0  0  0  0  0  0  0  0
   -2.5981    3.2143    0.0000 C   0  0  0  0  0  0  0  0  0  0  0  0
   -2.5981    1.7143    0.0000 C   0  0  0  0  0  0  0  0  0  0  0  0
   -2.5981   -1.2857    0.0000 C   0  0  0  0  0  0  0  0  0  0  0  0
   -3.8971   -0.5357    0.0000 C   0  0  0  0  0  0  0  0  0  0  0  0
   -5.1962   -1.2857    0.0000 C   0  0  0  0  0  0  0  0  0  0  0  0
   -5.1962   -2.7857    0.0000 C   0  0  0  0  0  0  0  0  0  0  0  0
   -3.8971   -3.5357    0.0000 C   0  0  0  0  0  0  0  0  0  0  0  0
   -2.5981   -2.7857    0.0000 C   0  0  0  0  0  0  0  0  0  0  0  0
    1.2990   -0.5357    0.0000 P   0  0  0  0  0  0  0  0  0  0  0  0
    2.5981   -1.2857    0.0000 C   0  0  0  0  0  0  0  0  0  0  0  0
    2.5981   -2.7857    0.0000 C   0  0  0  0  0  0  0  0  0  0  0  0
    3.8971   -3.5357    0.0000 C   0  0  0  0  0  0  0  0  0  0  0  0
    5.1962   -2.7857    0.0000 C   0  0  0  0  0  0  0  0  0  0  0  0
    5.1962   -1.2857    0.0000 C   0  0  0  0  0  0  0  0  0  0  0  0
    3.8971   -0.5357    0.0000 C   0  0  0  0  0  0  0  0  0  0  0  0
    1.2990    0.9643    0.0000 C   0  0  0  0  0  0  0  0  0  0  0  0
    2.5981    1.7143    0.0000 C   0  0  0  0  0  0  0  0  0  0  0  0
    2.5981    3.2143    0.0000 C   0  0  0  0  0  0  0  0  0  0  0  0
    1.2990    3.9643    0.0000 C   0  0  0  0  0  0  0  0  0  0  0  0
    0.0000    3.2143    0.0000 C   0  0  0  0  0  0  0  0  0  0  0  0
    0.0000    1.7143    0.0000 C   0  0  0  0  0  0  0  0  0  0  0  0
  1  2  1  0
  2  3  1  0
  3  4  1  0
  4  5  2  0
  5  6  1  0
  6  7  2  0
  7  8  1  0
  8  9  2  0
  3 10  1  0
 10 11  2  0
 11 12  1  0
 12 13  2  0
 13 14  1  0
 14 15  2  0
  2 16  1  0
 16 17  1  0
 17 18  2  0
 18 19  1  0
 19 20  2  0
 20 21  1  0
 21 22  2  0
 16 23  1  0
 23 24  2  0
 24 25  1  0
 25 26  2  0
 26 27  1  0
 27 28  2  0
  9  4  1  0
 15 10  1  0
 22 17  1  0
 28 23  1  0
M  END
>  <linear_selectivity>  (837) 
33

>  <denticity>  (837) 
2

>  <ligand_class>  (837) 
diphosphine

$$$$
dppe_130C_dioxane
     RDKit          2D

 28 31  0  0  0  0  0  0  0  0999 V2000
   -0.0000   -2.7857    0.0000 C   0  0  0  0  0  0  0  0  0  0  0  0
   -0.0000   -1.2857    0.0000 C   0  0  0  0  0  0  0  0  0  0  0  0
   -1.2990   -0.5357    0.0000 P   0  0  0  0  0  0  0  0  0  0  0  0
   -1.2990    0.9643    0.0000 C   0  0  0  0  0  0  0  0  0  0  0  0
    0.0000    1.7143    0.0000 C   0  0  0  0  0  0  0  0  0  0  0  0
    0.0000    3.2143    0.0000 C   0  0  0  0  0  0  0  0  0  0  0  0
   -1.2990    3.9643    0.0000 C   0  0  0  0  0  0  0  0  0  0  0  0
   -2.5981    3.2143    0.0000 C   0  0  0  0  0  0  0  0  0  0  0  0
   -2.5981    1.7143    0.0000 C   0  0  0  0  0  0  0  0  0  0  0  0
   -2.5981   -1.2857    0.0000 C   0  0  0  0  0  0  0  0  0  0  0  0
   -3.8971   -0.5357    0.0000 C   0  0  0  0  0  0  0  0  0  0  0  0
   -5.1962   -1.2857    0.0000 C   0  0  0  0  0  0  0  0  0  0  0  0
   -5.1962   -2.7857    0.0000 C   0  0  0  0  0  0  0  0  0  0  0  0
   -3.8971   -3.5357    0.0000 C   0  0  0  0  0  0  0  0  0  0  0  0
   -2.5981   -2.7857    0.0000 C   0  0  0  0  0  0  0  0  0  0  0  0
    1.2990   -0.5357    0.0000 P   0  0  0  0  0  0  0  0  0  0  0  0
    2.5981   -1.2857    0.0000 C   0  0  0  0  0  0  0  0  0  0  0  0
    2.5981   -2.7857    0.0000 C   0  0  0  0  0  0  0  0  0  0  0  0
    3.8971   -3.5357    0.0000 C   0  0  0  0  0  0  0  0  0  0  0  0
    5.1962   -2.7857    0.0000 C   0  0  0  0  0  0  0  0  0  0  0  0
    5.1962   -1.2857    0.0000 C   0  0  0  0  0  0  0  0  0  0  0  0
    3.8971   -0.5357    0.0000 C   0  0  0  0  0  0  0  0  0  0  0  0
    1.2990    0.9643    0.0000 C   0  0  0  0  0  0  0  0  0  0  0  0
    2.5981    1.7143    0.0000 C   0  0  0  0  0  0  0  0  0  0  0  0
    2.5981    3.2143    0.0000 C   0  0  0  0  0  0  0  0  0  0  0  0
    1.2990    3.9643    0.0000 C   0  0  0  0  0  0  0  0  0  0  0  0
    0.0000    3.2143    0.0000 C   0  0  0  0  0  0  0  0  0  0  0  0
    0.0000    1.7143    0.0000 C   0  0  0  0  0  0  0  0  0  0  0  0
  1  2  1  0
  2  3  1  0
  3  4  1  0
  4  5  2  0
  5  6  1  0
  6  7  2  0
  7  8  1  0
  8  9  2  0
  3 10  1  0
 10 11  2  0
 11 12  1  0
 12 13  2  0
 13 14  1  0
 14 15  2  0
  2 16  1  0
 16 17  1  0
 17 18  2  0
 18 19  1  0
 19 20  2  0
 20 21  1  0
 21 22  2  0
 16 23  1  0
 23 24  2  0
 24 25  1  0
 25 26  2  0
 26 27  1  0
 27 28  2  0
  9  4  1  0
 15 10  1  0
 22 17  1  0
 28 23  1  0
M  END
>  <linear_selectivity>  (838) 
36

>  <denticity>  (838) 
2

>  <ligand_class>  (838) 
diphosphine

$$$$
dppe_130C_hexane
     RDKit          2D

 28 31  0  0  0  0  0  0  0  0999 V2000
   -0.0000   -2.7857    0.0000 C   0  0  0  0  0  0  0  0  0  0  0  0
   -0.0000   -1.2857    0.0000 C   0  0  0  0  0  0  0  0  0  0  0  0
   -1.2990   -0.5357    0.0000 P   0  0  0  0  0  0  0  0  0  0  0  0
   -1.2990    0.9643    0.0000 C   0  0  0  0  0  0  0  0  0  0  0  0
    0.0000    1.7143    0.0000 C   0  0  0  0  0  0  0  0  0  0  0  0
    0.0000    3.2143    0.0000 C   0  0  0  0  0  0  0  0  0  0  0  0
   -1.2990    3.9643    0.0000 C   0  0  0  0  0  0  0  0  0  0  0  0
   -2.5981    3.2143    0.0000 C   0  0  0  0  0  0  0  0  0  0  0  0
   -2.5981    1.7143    0.0000 C   0  0  0  0  0  0  0  0  0  0  0  0
   -2.5981   -1.2857    0.0000 C   0  0  0  0  0  0  0  0  0  0  0  0
   -3.8971   -0.5357    0.0000 C   0  0  0  0  0  0  0  0  0  0  0  0
   -5.1962   -1.2857    0.0000 C   0  0  0  0  0  0  0  0  0  0  0  0
   -5.1962   -2.7857    0.0000 C   0  0  0  0  0  0  0  0  0  0  0  0
   -3.8971   -3.5357    0.0000 C   0  0  0  0  0  0  0  0  0  0  0  0
   -2.5981   -2.7857    0.0000 C   0  0  0  0  0  0  0  0  0  0  0  0
    1.2990   -0.5357    0.0000 P   0  0  0  0  0  0  0  0  0  0  0  0
    2.5981   -1.2857    0.0000 C   0  0  0  0  0  0  0  0  0  0  0  0
    2.5981   -2.7857    0.0000 C   0  0  0  0  0  0  0  0  0  0  0  0
    3.8971   -3.5357    0.0000 C   0  0  0  0  0  0  0  0  0  0  0  0
    5.1962   -2.7857    0.0000 C   0  0  0  0  0  0  0  0  0  0  0  0
    5.1962   -1.2857    0.0000 C   0  0  0  0  0  0  0  0  0  0  0  0
    3.8971   -0.5357    0.0000 C   0  0  0  0  0  0  0  0  0  0  0  0
    1.2990    0.9643    0.0000 C   0  0  0  0  0  0  0  0  0  0  0  0
    2.5981    1.7143    0.0000 C   0  0  0  0  0  0  0  0  0  0  0  0
    2.5981    3.2143    0.0000 C   0  0  0  0  0  0  0  0  0  0  0  0
    1.2990    3.9643    0.0000 C   0  0  0  0  0  0  0  0  0  0  0  0
    0.0000    3.2143    0.0000 C   0  0  0  0  0  0  0  0  0  0  0  0
    0.0000    1.7143    0.0000 C   0  0  0  0  0  0  0  0  0  0  0  0
  1  2  1  0
  2  3  1  0
  3  4  1  0
  4  5  2  0
  5  6  1  0
  6  7  2  0
  7  8  1  0
  8  9  2  0
  3 10  1  0
 10 11  2  0
 11 12  1  0
 12 13  2  0
 13 14  1  0
 14 15  2  0
  2 16  1  0
 16 17  1  0
 17 18  2  0
 18 19  1  0
 19 20  2  0
 20 21  1  0
 21 22  2  0
 16 23  1  0
 23 24  2  0
 24 25  1  0
 25 26  2  0
 26 27  1  0
 27 28  2  0
  9  4  1  0
 15 10  1  0
 22 17  1  0
 28 23  1  0
M  END
>  <linear_selectivity>  (839) 
41

>  <denticity>  (839) 
2

>  <ligand_class>  (839) 
diphosphine

$$$$
dppe_130C_benzene
     RDKit          2D

 28 31  0  0  0  0  0  0  0  0999 V2000
   -0.0000   -2.7857    0.0000 C   0  0  0  0  0  0  0  0  0  0  0  0
   -0.0000   -1.2857    0.0000 C   0  0  0  0  0  0  0  0  0  0  0  0
   -1.2990   -0.5357    0.0000 P   0  0  0  0  0  0  0  0  0  0  0  0
   -1.2990    0.9643    0.0000 C   0  0  0  0  0  0  0  0  0  0  0  0
    0.0000    1.7143    0.0000 C   0  0  0  0  0  0  0  0  0  0  0  0
    0.0000    3.2143    0.0000 C   0  0  0  0  0  0  0  0  0  0  0  0
   -1.2990    3.9643    0.0000 C   0  0  0  0  0  0  0  0  0  0  0  0
   -2.5981    3.2143    0.0000 C   0  0  0  0  0  0  0  0  0  0  0  0
   -2.5981    1.7143    0.0000 C   0  0  0  0  0  0  0  0  0  0  0  0
   -2.5981   -1.2857    0.0000 C   0  0  0  0  0  0  0  0  0  0  0  0
   -3.8971   -0.5357    0.0000 C   0  0  0  0  0  0  0  0  0  0  0  0
   -5.1962   -1.2857    0.0000 C   0  0  0  0  0  0  0  0  0  0  0  0
   -5.1962   -2.7857    0.0000 C   0  0  0  0  0  0  0  0  0  0  0  0
   -3.8971   -3.5357    0.0000 C   0  0  0  0  0  0  0  0  0  0  0  0
   -2.5981   -2.7857    0.0000 C   0  0  0  0  0  0  0  0  0  0  0  0
    1.2990   -0.5357    0.0000 P   0  0  0  0  0  0  0  0  0  0  0  0
    2.5981   -1.2857    0.0000 C   0  0  0  0  0  0  0  0  0  0  0  0
    2.5981   -2.7857    0.0000 C   0  0  0  0  0  0  0  0  0  0  0  0
    3.8971   -3.5357    0.0000 C   0  0  0  0  0  0  0  0  0  0  0  0
    5.1962   -2.7857    0.0000 C   0  0  0  0  0  0  0  0  0  0  0  0
    5.1962   -1.2857    0.0000 C   0  0  0  0  0  0  0  0  0  0  0  0
    3.8971   -0.5357    0.0000 C   0  0  0  0  0  0  0  0  0  0  0  0
    1.2990    0.9643    0.0000 C   0  0  0  0  0  0  0  0  0  0  0  0
    2.5981    1.7143    0.0000 C   0  0  0  0  0  0  0  0  0  0  0  0
    2.5981    3.2143    0.0000 C   0  0  0  0  0  0  0  0  0  0  0  0
    1.2990    3.9643    0.0000 C   0  0  0  0  0  0  0  0  0  0  0  0
    0.0000    3.2143    0.0000 C   0  0  0  0  0  0  0  0  0  0  0  0
    0.0000    1.7143    0.0000 C   0  0  0  0  0  0  0  0  0  0  0  0
  1  2  1  0
  2  3  1  0
  3  4  1  0
  4  5  2  0
  5  6  1  0
  6  7  2  0
  7  8  1  0
  8  9  2  0
  3 10  1  0
 10 11  2  0
 11 12  1  0
 12 13  2  0
 13 14  1  0
 14 15  2  0
  2 16  1  0
 16 17  1  0
 17 18  2  0
 18 19  1  0
 19 20  2  0
 20 21  1  0
 21 22  2  0
 16 23  1  0
 23 24  2  0
 24 25  1  0
 25 26  2  0
 26 27  1  0
 27 28  2  0
  9  4  1  0
 15 10  1  0
 22 17  1  0
 28 23  1  0
M  END
>  <linear_selectivity>  (840) 
38

>  <denticity>  (840) 
2

>  <ligand_class>  (840) 
diphosphine

$$$$
dppe_130C_xylene
     RDKit          2D

 28 31  0  0  0  0  0  0  0  0999 V2000
   -0.0000   -2.7857    0.0000 C   0  0  0  0  0  0  0  0  0  0  0  0
   -0.0000   -1.2857    0.0000 C   0  0  0  0  0  0  0  0  0  0  0  0
   -1.2990   -0.5357    0.0000 P   0  0  0  0  0  0  0  0  0  0  0  0
   -1.2990    0.9643    0.0000 C   0  0  0  0  0  0  0  0  0  0  0  0
    0.0000    1.7143    0.0000 C   0  0  0  0  0  0  0  0  0  0  0  0
    0.0000    3.2143    0.0000 C   0  0  0  0  0  0  0  0  0  0  0  0
   -1.2990    3.9643    0.0000 C   0  0  0  0  0  0  0  0  0  0  0  0
   -2.5981    3.2143    0.0000 C   0  0  0  0  0  0  0  0  0  0  0  0
   -2.5981    1.7143    0.0000 C   0  0  0  0  0  0  0  0  0  0  0  0
   -2.5981   -1.2857    0.0000 C   0  0  0  0  0  0  0  0  0  0  0  0
   -3.8971   -0.5357    0.0000 C   0  0  0  0  0  0  0  0  0  0  0  0
   -5.1962   -1.2857    0.0000 C   0  0  0  0  0  0  0  0  0  0  0  0
   -5.1962   -2.7857    0.0000 C   0  0  0  0  0  0  0  0  0  0  0  0
   -3.8971   -3.5357    0.0000 C   0  0  0  0  0  0  0  0  0  0  0  0
   -2.5981   -2.7857    0.0000 C   0  0  0  0  0  0  0  0  0  0  0  0
    1.2990   -0.5357    0.0000 P   0  0  0  0  0  0  0  0  0  0  0  0
    2.5981   -1.2857    0.0000 C   0  0  0  0  0  0  0  0  0  0  0  0
    2.5981   -2.7857    0.0000 C   0  0  0  0  0  0  0  0  0  0  0  0
    3.8971   -3.5357    0.0000 C   0  0  0  0  0  0  0  0  0  0  0  0
    5.1962   -2.7857    0.0000 C   0  0  0  0  0  0  0  0  0  0  0  0
    5.1962   -1.2857    0.0000 C   0  0  0  0  0  0  0  0  0  0  0  0
    3.8971   -0.5357    0.0000 C   0  0  0  0  0  0  0  0  0  0  0  0
    1.2990    0.9643    0.0000 C   0  0  0  0  0  0  0  0  0  0  0  0
    2.5981    1.7143    0.0000 C   0  0  0  0  0  0  0  0  0  0  0  0
    2.5981    3.2143    0.0000 C   0  0  0  0  0  0  0  0  0  0  0  0
    1.2990    3.9643    0.0000 C   0  0  0  0  0  0  0  0  0  0  0  0
    0.0000    3.2143    0.0000 C   0  0  0  0  0  0  0  0  0  0  0  0
    0.0000    1.7143    0.0000 C   0  0  0  0  0  0  0  0  0  0  0  0
  1  2  1  0
  2  3  1  0
  3  4  1  0
  4  5  2  0
  5  6  1  0
  6  7  2  0
  7  8  1  0
  8  9  2  0
  3 10  1  0
 10 11  2  0
 11 12  1  0
 12 13  2  0
 13 14  1  0
 14 15  2  0
  2 16  1  0
 16 17  1  0
 17 18  2  0
 18 19  1  0
 19 20  2  0
 20 21  1  0
 21 22  2  0
 16 23  1  0
 23 24  2  0
 24 25  1  0
 25 26  2  0
 26 27  1  0
 27 28  2  0
  9  4  1  0
 15 10  1  0
 22 17  1  0
 28 23  1  0
M  END
>  <linear_selectivity>  (841) 
40

>  <denticity>  (841) 
2

>  <ligand_class>  (841) 
diphosphine

$$$$
dppp
     RDKit          2D

 29 32  0  0  0  0  0  0  0  0999 V2000
    1.4903   -3.3176    0.0000 C   0  0  0  0  0  0  0  0  0  0  0  0
    0.1419   -2.6604    0.0000 C   0  0  0  0  0  0  0  0  0  0  0  0
    0.0368   -1.1641    0.0000 C   0  0  0  0  0  0  0  0  0  0  0  0
   -1.3115   -0.5069    0.0000 P   0  0  0  0  0  0  0  0  0  0  0  0
   -1.4166    0.9894    0.0000 C   0  0  0  0  0  0  0  0  0  0  0  0
   -0.1733    1.8286    0.0000 C   0  0  0  0  0  0  0  0  0  0  0  0
   -0.2784    3.3249    0.0000 C   0  0  0  0  0  0  0  0  0  0  0  0
   -1.6267    3.9820    0.0000 C   0  0  0  0  0  0  0  0  0  0  0  0
   -2.8701    3.1429    0.0000 C   0  0  0  0  0  0  0  0  0  0  0  0
   -2.7650    1.6466    0.0000 C   0  0  0  0  0  0  0  0  0  0  0  0
   -2.5549   -1.3461    0.0000 C   0  0  0  0  0  0  0  0  0  0  0  0
   -3.9032   -0.6889    0.0000 C   0  0  0  0  0  0  0  0  0  0  0  0
   -5.1466   -1.5280    0.0000 C   0  0  0  0  0  0  0  0  0  0  0  0
   -5.0415   -3.0244    0.0000 C   0  0  0  0  0  0  0  0  0  0  0  0
   -3.6931   -3.6815    0.0000 C   0  0  0  0  0  0  0  0  0  0  0  0
   -2.4498   -2.8424    0.0000 C   0  0  0  0  0  0  0  0  0  0  0  0
    1.2801   -0.3249    0.0000 P   0  0  0  0  0  0  0  0  0  0  0  0
    2.6285   -0.9821    0.0000 C   0  0  0  0  0  0  0  0  0  0  0  0
    2.7336   -2.4784    0.0000 C   0  0  0  0  0  0  0  0  0  0  0  0
    4.0820   -3.1356    0.0000 C   0  0  0  0  0  0  0  0  0  0  0  0
    5.3253   -2.2964    0.0000 C   0  0  0  0  0  0  0  0  0  0  0  0
    5.2202   -0.8001    0.0000 C   0  0  0  0  0  0  0  0  0  0  0  0
    3.8718   -0.1429    0.0000 C   0  0  0  0  0  0  0  0  0  0  0  0
    1.1751    1.1714    0.0000 C   0  0  0  0  0  0  0  0  0  0  0  0
   -0.1733    1.8286    0.0000 C   0  0  0  0  0  0  0  0  0  0  0  0
   -0.2784    3.3249    0.0000 C   0  0  0  0  0  0  0  0  0  0  0  0
    0.9649    4.1640    0.0000 C   0  0  0  0  0  0  0  0  0  0  0  0
    2.3133    3.5069    0.0000 C   0  0  0  0  0  0  0  0  0  0  0  0
    2.4184    2.0105    0.0000 C   0  0  0  0  0  0  0  0  0  0  0  0
  1  2  1  0
  2  3  1  0
  3  4  1  0
  4  5  1  0
  5  6  2  0
  6  7  1  0
  7  8  2  0
  8  9  1  0
  9 10  2  0
  4 11  1  0
 11 12  2  0
 12 13  1  0
 13 14  2  0
 14 15  1  0
 15 16  2  0
  3 17  1  0
 17 18  1  0
 18 19  2  0
 19 20  1  0
 20 21  2  0
 21 22  1  0
 22 23  2  0
 17 24  1  0
 24 25  2  0
 25 26  1  0
 26 27  2  0
 27 28  1  0
 28 29  2  0
 10  5  1  0
 16 11  1  0
 23 18  1  0
 29 24  1  0
M  END
>  <linear_selectivity>  (842) 
58

>  <denticity>  (842) 
2

>  <ligand_class>  (842) 
diphosphine

$$$$
dppp_70C_toluene
     RDKit          2D

 29 32  0  0  0  0  0  0  0  0999 V2000
    1.4903   -3.3176    0.0000 C   0  0  0  0  0  0  0  0  0  0  0  0
    0.1419   -2.6604    0.0000 C   0  0  0  0  0  0  0  0  0  0  0  0
    0.0368   -1.1641    0.0000 C   0  0  0  0  0  0  0  0  0  0  0  0
   -1.3115   -0.5069    0.0000 P   0  0  0  0  0  0  0  0  0  0  0  0
   -1.4166    0.9894    0.0000 C   0  0  0  0  0  0  0  0  0  0  0  0
   -0.1733    1.8286    0.0000 C   0  0  0  0  0  0  0  0  0  0  0  0
   -0.2784    3.3249    0.0000 C   0  0  0  0  0  0  0  0  0  0  0  0
   -1.6267    3.9820    0.0000 C   0  0  0  0  0  0  0  0  0  0  0  0
   -2.8701    3.1429    0.0000 C   0  0  0  0  0  0  0  0  0  0  0  0
   -2.7650    1.6466    0.0000 C   0  0  0  0  0  0  0  0  0  0  0  0
   -2.5549   -1.3461    0.0000 C   0  0  0  0  0  0  0  0  0  0  0  0
   -3.9032   -0.6889    0.0000 C   0  0  0  0  0  0  0  0  0  0  0  0
   -5.1466   -1.5280    0.0000 C   0  0  0  0  0  0  0  0  0  0  0  0
   -5.0415   -3.0244    0.0000 C   0  0  0  0  0  0  0  0  0  0  0  0
   -3.6931   -3.6815    0.0000 C   0  0  0  0  0  0  0  0  0  0  0  0
   -2.4498   -2.8424    0.0000 C   0  0  0  0  0  0  0  0  0  0  0  0
    1.2801   -0.3249    0.0000 P   0  0  0  0  0  0  0  0  0  0  0  0
    2.6285   -0.9821    0.0000 C   0  0  0  0  0  0  0  0  0  0  0  0
    2.7336   -2.4784    0.0000 C   0  0  0  0  0  0  0  0  0  0  0  0
    4.0820   -3.1356    0.0000 C   0  0  0  0  0  0  0  0  0  0  0  0
    5.3253   -2.2964    0.0000 C   0  0  0  0  0  0  0  0  0  0  0  0
    5.2202   -0.8001    0.0000 C   0  0  0  0  0  0  0  0  0  0  0  0
    3.8718   -0.1429    0.0000 C   0  0  0  0  0  0  0  0  0  0  0  0
    1.1751    1.1714    0.0000 C   0  0  0  0  0  0  0  0  0  0  0  0
   -0.1733    1.8286    0.0000 C   0  0  0  0  0  0  0  0  0  0  0  0
   -0.2784    3.3249    0.0000 C   0  0  0  0  0  0  0  0  0  0  0  0
    0.9649    4.1640    0.0000 C   0  0  0  0  0  0  0  0  0  0  0  0
    2.3133    3.5069    0.0000 C   0  0  0  0  0  0  0  0  0  0  0  0
    2.4184    2.0105    0.0000 C   0  0  0  0  0  0  0  0  0  0  0  0
  1  2  1  0
  2  3  1  0
  3  4  1  0
  4  5  1  0
  5  6  2  0
  6  7  1  0
  7  8  2  0
  8  9  1  0
  9 10  2  0
  4 11  1  0
 11 12  2  0
 12 13  1  0
 13 14  2  0
 14 15  1  0
 15 16  2  0
  3 17  1  0
 17 18  1  0
 18 19  2  0
 19 20  1  0
 20 21  2  0
 21 22  1  0
 22 23  2  0
 17 24  1  0
 24 25  2  0
 25 26  1  0
 26 27  2  0
 27 28  1  0
 28 29  2  0
 10  5  1  0
 16 11  1  0
 23 18  1  0
 29 24  1  0
M  END
>  <linear_selectivity>  (843) 
65

>  <denticity>  (843) 
2

>  <ligand_class>  (843) 
diphosphine

$$$$
dppp_70C_dioxane
     RDKit          2D

 29 32  0  0  0  0  0  0  0  0999 V2000
    1.4903   -3.3176    0.0000 C   0  0  0  0  0  0  0  0  0  0  0  0
    0.1419   -2.6604    0.0000 C   0  0  0  0  0  0  0  0  0  0  0  0
    0.0368   -1.1641    0.0000 C   0  0  0  0  0  0  0  0  0  0  0  0
   -1.3115   -0.5069    0.0000 P   0  0  0  0  0  0  0  0  0  0  0  0
   -1.4166    0.9894    0.0000 C   0  0  0  0  0  0  0  0  0  0  0  0
   -0.1733    1.8286    0.0000 C   0  0  0  0  0  0  0  0  0  0  0  0
   -0.2784    3.3249    0.0000 C   0  0  0  0  0  0  0  0  0  0  0  0
   -1.6267    3.9820    0.0000 C   0  0  0  0  0  0  0  0  0  0  0  0
   -2.8701    3.1429    0.0000 C   0  0  0  0  0  0  0  0  0  0  0  0
   -2.7650    1.6466    0.0000 C   0  0  0  0  0  0  0  0  0  0  0  0
   -2.5549   -1.3461    0.0000 C   0  0  0  0  0  0  0  0  0  0  0  0
   -3.9032   -0.6889    0.0000 C   0  0  0  0  0  0  0  0  0  0  0  0
   -5.1466   -1.5280    0.0000 C   0  0  0  0  0  0  0  0  0  0  0  0
   -5.0415   -3.0244    0.0000 C   0  0  0  0  0  0  0  0  0  0  0  0
   -3.6931   -3.6815    0.0000 C   0  0  0  0  0  0  0  0  0  0  0  0
   -2.4498   -2.8424    0.0000 C   0  0  0  0  0  0  0  0  0  0  0  0
    1.2801   -0.3249    0.0000 P   0  0  0  0  0  0  0  0  0  0  0  0
    2.6285   -0.9821    0.0000 C   0  0  0  0  0  0  0  0  0  0  0  0
    2.7336   -2.4784    0.0000 C   0  0  0  0  0  0  0  0  0  0  0  0
    4.0820   -3.1356    0.0000 C   0  0  0  0  0  0  0  0  0  0  0  0
    5.3253   -2.2964    0.0000 C   0  0  0  0  0  0  0  0  0  0  0  0
    5.2202   -0.8001    0.0000 C   0  0  0  0  0  0  0  0  0  0  0  0
    3.8718   -0.1429    0.0000 C   0  0  0  0  0  0  0  0  0  0  0  0
    1.1751    1.1714    0.0000 C   0  0  0  0  0  0  0  0  0  0  0  0
   -0.1733    1.8286    0.0000 C   0  0  0  0  0  0  0  0  0  0  0  0
   -0.2784    3.3249    0.0000 C   0  0  0  0  0  0  0  0  0  0  0  0
    0.9649    4.1640    0.0000 C   0  0  0  0  0  0  0  0  0  0  0  0
    2.3133    3.5069    0.0000 C   0  0  0  0  0  0  0  0  0  0  0  0
    2.4184    2.0105    0.0000 C   0  0  0  0  0  0  0  0  0  0  0  0
  1  2  1  0
  2  3  1  0
  3  4  1  0
  4  5  1  0
  5  6  2  0
  6  7  1  0
  7  8  2  0
  8  9  1  0
  9 10  2  0
  4 11  1  0
 11 12  2  0
 12 13  1  0
 13 14  2  0
 14 15  1  0
 15 16  2  0
  3 17  1  0
 17 18  1  0
 18 19  2  0
 19 20  1  0
 20 21  2  0
 21 22  1  0
 22 23  2  0
 17 24  1  0
 24 25  2  0
 25 26  1  0
 26 27  2  0
 27 28  1  0
 28 29  2  0
 10  5  1  0
 16 11  1  0
 23 18  1  0
 29 24  1  0
M  END
>  <linear_selectivity>  (844) 
63

>  <denticity>  (844) 
2

>  <ligand_class>  (844) 
diphosphine

$$$$
dppp_70C_benzene
     RDKit          2D

 29 32  0  0  0  0  0  0  0  0999 V2000
    1.4903   -3.3176    0.0000 C   0  0  0  0  0  0  0  0  0  0  0  0
    0.1419   -2.6604    0.0000 C   0  0  0  0  0  0  0  0  0  0  0  0
    0.0368   -1.1641    0.0000 C   0  0  0  0  0  0  0  0  0  0  0  0
   -1.3115   -0.5069    0.0000 P   0  0  0  0  0  0  0  0  0  0  0  0
   -1.4166    0.9894    0.0000 C   0  0  0  0  0  0  0  0  0  0  0  0
   -0.1733    1.8286    0.0000 C   0  0  0  0  0  0  0  0  0  0  0  0
   -0.2784    3.3249    0.0000 C   0  0  0  0  0  0  0  0  0  0  0  0
   -1.6267    3.9820    0.0000 C   0  0  0  0  0  0  0  0  0  0  0  0
   -2.8701    3.1429    0.0000 C   0  0  0  0  0  0  0  0  0  0  0  0
   -2.7650    1.6466    0.0000 C   0  0  0  0  0  0  0  0  0  0  0  0
   -2.5549   -1.3461    0.0000 C   0  0  0  0  0  0  0  0  0  0  0  0
   -3.9032   -0.6889    0.0000 C   0  0  0  0  0  0  0  0  0  0  0  0
   -5.1466   -1.5280    0.0000 C   0  0  0  0  0  0  0  0  0  0  0  0
   -5.0415   -3.0244    0.0000 C   0  0  0  0  0  0  0  0  0  0  0  0
   -3.6931   -3.6815    0.0000 C   0  0  0  0  0  0  0  0  0  0  0  0
   -2.4498   -2.8424    0.0000 C   0  0  0  0  0  0  0  0  0  0  0  0
    1.2801   -0.3249    0.0000 P   0  0  0  0  0  0  0  0  0  0  0  0
    2.6285   -0.9821    0.0000 C   0  0  0  0  0  0  0  0  0  0  0  0
    2.7336   -2.4784    0.0000 C   0  0  0  0  0  0  0  0  0  0  0  0
    4.0820   -3.1356    0.0000 C   0  0  0  0  0  0  0  0  0  0  0  0
    5.3253   -2.2964    0.0000 C   0  0  0  0  0  0  0  0  0  0  0  0
    5.2202   -0.8001    0.0000 C   0  0  0  0  0  0  0  0  0  0  0  0
    3.8718   -0.1429    0.0000 C   0  0  0  0  0  0  0  0  0  0  0  0
    1.1751    1.1714    0.0000 C   0  0  0  0  0  0  0  0  0  0  0  0
   -0.1733    1.8286    0.0000 C   0  0  0  0  0  0  0  0  0  0  0  0
   -0.2784    3.3249    0.0000 C   0  0  0  0  0  0  0  0  0  0  0  0
    0.9649    4.1640    0.0000 C   0  0  0  0  0  0  0  0  0  0  0  0
    2.3133    3.5069    0.0000 C   0  0  0  0  0  0  0  0  0  0  0  0
    2.4184    2.0105    0.0000 C   0  0  0  0  0  0  0  0  0  0  0  0
  1  2  1  0
  2  3  1  0
  3  4  1  0
  4  5  1  0
  5  6  2  0
  6  7  1  0
  7  8  2  0
  8  9  1  0
  9 10  2  0
  4 11  1  0
 11 12  2  0
 12 13  1  0
 13 14  2  0
 14 15  1  0
 15 16  2  0
  3 17  1  0
 17 18  1  0
 18 19  2  0
 19 20  1  0
 20 21  2  0
 21 22  1  0
 22 23  2  0
 17 24  1  0
 24 25  2  0
 25 26  1  0
 26 27  2  0
 27 28  1  0
 28 29  2  0
 10  5  1  0
 16 11  1  0
 23 18  1  0
 29 24  1  0
M  END
>  <linear_selectivity>  (845) 
63

>  <denticity>  (845) 
2

>  <ligand_class>  (845) 
diphosphine

$$$$
dppp_70C_xylene
     RDKit          2D

 29 32  0  0  0  0  0  0  0  0999 V2000
    1.4903   -3.3176    0.0000 C   0  0  0  0  0  0  0  0  0  0  0  0
    0.1419   -2.6604    0.0000 C   0  0  0  0  0  0  0  0  0  0  0  0
    0.0368   -1.1641    0.0000 C   0  0  0  0  0  0  0  0  0  0  0  0
   -1.3115   -0.5069    0.0000 P   0  0  0  0  0  0  0  0  0  0  0  0
   -1.4166    0.9894    0.0000 C   0  0  0  0  0  0  0  0  0  0  0  0
   -0.1733    1.8286    0.0000 C   0  0  0  0  0  0  0  0  0  0  0  0
   -0.2784    3.3249    0.0000 C   0  0  0  0  0  0  0  0  0  0  0  0
   -1.6267    3.9820    0.0000 C   0  0  0  0  0  0  0  0  0  0  0  0
   -2.8701    3.1429    0.0000 C   0  0  0  0  0  0  0  0  0  0  0  0
   -2.7650    1.6466    0.0000 C   0  0  0  0  0  0  0  0  0  0  0  0
   -2.5549   -1.3461    0.0000 C   0  0  0  0  0  0  0  0  0  0  0  0
   -3.9032   -0.6889    0.0000 C   0  0  0  0  0  0  0  0  0  0  0  0
   -5.1466   -1.5280    0.0000 C   0  0  0  0  0  0  0  0  0  0  0  0
   -5.0415   -3.0244    0.0000 C   0  0  0  0  0  0  0  0  0  0  0  0
   -3.6931   -3.6815    0.0000 C   0  0  0  0  0  0  0  0  0  0  0  0
   -2.4498   -2.8424    0.0000 C   0  0  0  0  0  0  0  0  0  0  0  0
    1.2801   -0.3249    0.0000 P   0  0  0  0  0  0  0  0  0  0  0  0
    2.6285   -0.9821    0.0000 C   0  0  0  0  0  0  0  0  0  0  0  0
    2.7336   -2.4784    0.0000 C   0  0  0  0  0  0  0  0  0  0  0  0
    4.0820   -3.1356    0.0000 C   0  0  0  0  0  0  0  0  0  0  0  0
    5.3253   -2.2964    0.0000 C   0  0  0  0  0  0  0  0  0  0  0  0
    5.2202   -0.8001    0.0000 C   0  0  0  0  0  0  0  0  0  0  0  0
    3.8718   -0.1429    0.0000 C   0  0  0  0  0  0  0  0  0  0  0  0
    1.1751    1.1714    0.0000 C   0  0  0  0  0  0  0  0  0  0  0  0
   -0.1733    1.8286    0.0000 C   0  0  0  0  0  0  0  0  0  0  0  0
   -0.2784    3.3249    0.0000 C   0  0  0  0  0  0  0  0  0  0  0  0
    0.9649    4.1640    0.0000 C   0  0  0  0  0  0  0  0  0  0  0  0
    2.3133    3.5069    0.0000 C   0  0  0  0  0  0  0  0  0  0  0  0
    2.4184    2.0105    0.0000 C   0  0  0  0  0  0  0  0  0  0  0  0
  1  2  1  0
  2  3  1  0
  3  4  1  0
  4  5  1  0
  5  6  2  0
  6  7  1  0
  7  8  2  0
  8  9  1  0
  9 10  2  0
  4 11  1  0
 11 12  2  0
 12 13  1  0
 13 14  2  0
 14 15  1  0
 15 16  2  0
  3 17  1  0
 17 18  1  0
 18 19  2  0
 19 20  1  0
 20 21  2  0
 21 22  1  0
 22 23  2  0
 17 24  1  0
 24 25  2  0
 25 26  1  0
 26 27  2  0
 27 28  1  0
 28 29  2  0
 10  5  1  0
 16 11  1  0
 23 18  1  0
 29 24  1  0
M  END
>  <linear_selectivity>  (846) 
66

>  <denticity>  (846) 
2

>  <ligand_class>  (846) 
diphosphine

$$$$
dppp_80C_hexane
     RDKit          2D

 29 32  0  0  0  0  0  0  0  0999 V2000
    1.4903   -3.3176    0.0000 C   0  0  0  0  0  0  0  0  0  0  0  0
    0.1419   -2.6604    0.0000 C   0  0  0  0  0  0  0  0  0  0  0  0
    0.0368   -1.1641    0.0000 C   0  0  0  0  0  0  0  0  0  0  0  0
   -1.3115   -0.5069    0.0000 P   0  0  0  0  0  0  0  0  0  0  0  0
   -1.4166    0.9894    0.0000 C   0  0  0  0  0  0  0  0  0  0  0  0
   -0.1733    1.8286    0.0000 C   0  0  0  0  0  0  0  0  0  0  0  0
   -0.2784    3.3249    0.0000 C   0  0  0  0  0  0  0  0  0  0  0  0
   -1.6267    3.9820    0.0000 C   0  0  0  0  0  0  0  0  0  0  0  0
   -2.8701    3.1429    0.0000 C   0  0  0  0  0  0  0  0  0  0  0  0
   -2.7650    1.6466    0.0000 C   0  0  0  0  0  0  0  0  0  0  0  0
   -2.5549   -1.3461    0.0000 C   0  0  0  0  0  0  0  0  0  0  0  0
   -3.9032   -0.6889    0.0000 C   0  0  0  0  0  0  0  0  0  0  0  0
   -5.1466   -1.5280    0.0000 C   0  0  0  0  0  0  0  0  0  0  0  0
   -5.0415   -3.0244    0.0000 C   0  0  0  0  0  0  0  0  0  0  0  0
   -3.6931   -3.6815    0.0000 C   0  0  0  0  0  0  0  0  0  0  0  0
   -2.4498   -2.8424    0.0000 C   0  0  0  0  0  0  0  0  0  0  0  0
    1.2801   -0.3249    0.0000 P   0  0  0  0  0  0  0  0  0  0  0  0
    2.6285   -0.9821    0.0000 C   0  0  0  0  0  0  0  0  0  0  0  0
    2.7336   -2.4784    0.0000 C   0  0  0  0  0  0  0  0  0  0  0  0
    4.0820   -3.1356    0.0000 C   0  0  0  0  0  0  0  0  0  0  0  0
    5.3253   -2.2964    0.0000 C   0  0  0  0  0  0  0  0  0  0  0  0
    5.2202   -0.8001    0.0000 C   0  0  0  0  0  0  0  0  0  0  0  0
    3.8718   -0.1429    0.0000 C   0  0  0  0  0  0  0  0  0  0  0  0
    1.1751    1.1714    0.0000 C   0  0  0  0  0  0  0  0  0  0  0  0
   -0.1733    1.8286    0.0000 C   0  0  0  0  0  0  0  0  0  0  0  0
   -0.2784    3.3249    0.0000 C   0  0  0  0  0  0  0  0  0  0  0  0
    0.9649    4.1640    0.0000 C   0  0  0  0  0  0  0  0  0  0  0  0
    2.3133    3.5069    0.0000 C   0  0  0  0  0  0  0  0  0  0  0  0
    2.4184    2.0105    0.0000 C   0  0  0  0  0  0  0  0  0  0  0  0
  1  2  1  0
  2  3  1  0
  3  4  1  0
  4  5  1  0
  5  6  2  0
  6  7  1  0
  7  8  2  0
  8  9  1  0
  9 10  2  0
  4 11  1  0
 11 12  2  0
 12 13  1  0
 13 14  2  0
 14 15  1  0
 15 16  2  0
  3 17  1  0
 17 18  1  0
 18 19  2  0
 19 20  1  0
 20 21  2  0
 21 22  1  0
 22 23  2  0
 17 24  1  0
 24 25  2  0
 25 26  1  0
 26 27  2  0
 27 28  1  0
 28 29  2  0
 10  5  1  0
 16 11  1  0
 23 18  1  0
 29 24  1  0
M  END
>  <linear_selectivity>  (847) 
63

>  <denticity>  (847) 
2

>  <ligand_class>  (847) 
diphosphine

$$$$
dppp_80C_xylene
     RDKit          2D

 29 32  0  0  0  0  0  0  0  0999 V2000
    1.4903   -3.3176    0.0000 C   0  0  0  0  0  0  0  0  0  0  0  0
    0.1419   -2.6604    0.0000 C   0  0  0  0  0  0  0  0  0  0  0  0
    0.0368   -1.1641    0.0000 C   0  0  0  0  0  0  0  0  0  0  0  0
   -1.3115   -0.5069    0.0000 P   0  0  0  0  0  0  0  0  0  0  0  0
   -1.4166    0.9894    0.0000 C   0  0  0  0  0  0  0  0  0  0  0  0
   -0.1733    1.8286    0.0000 C   0  0  0  0  0  0  0  0  0  0  0  0
   -0.2784    3.3249    0.0000 C   0  0  0  0  0  0  0  0  0  0  0  0
   -1.6267    3.9820    0.0000 C   0  0  0  0  0  0  0  0  0  0  0  0
   -2.8701    3.1429    0.0000 C   0  0  0  0  0  0  0  0  0  0  0  0
   -2.7650    1.6466    0.0000 C   0  0  0  0  0  0  0  0  0  0  0  0
   -2.5549   -1.3461    0.0000 C   0  0  0  0  0  0  0  0  0  0  0  0
   -3.9032   -0.6889    0.0000 C   0  0  0  0  0  0  0  0  0  0  0  0
   -5.1466   -1.5280    0.0000 C   0  0  0  0  0  0  0  0  0  0  0  0
   -5.0415   -3.0244    0.0000 C   0  0  0  0  0  0  0  0  0  0  0  0
   -3.6931   -3.6815    0.0000 C   0  0  0  0  0  0  0  0  0  0  0  0
   -2.4498   -2.8424    0.0000 C   0  0  0  0  0  0  0  0  0  0  0  0
    1.2801   -0.3249    0.0000 P   0  0  0  0  0  0  0  0  0  0  0  0
    2.6285   -0.9821    0.0000 C   0  0  0  0  0  0  0  0  0  0  0  0
    2.7336   -2.4784    0.0000 C   0  0  0  0  0  0  0  0  0  0  0  0
    4.0820   -3.1356    0.0000 C   0  0  0  0  0  0  0  0  0  0  0  0
    5.3253   -2.2964    0.0000 C   0  0  0  0  0  0  0  0  0  0  0  0
    5.2202   -0.8001    0.0000 C   0  0  0  0  0  0  0  0  0  0  0  0
    3.8718   -0.1429    0.0000 C   0  0  0  0  0  0  0  0  0  0  0  0
    1.1751    1.1714    0.0000 C   0  0  0  0  0  0  0  0  0  0  0  0
   -0.1733    1.8286    0.0000 C   0  0  0  0  0  0  0  0  0  0  0  0
   -0.2784    3.3249    0.0000 C   0  0  0  0  0  0  0  0  0  0  0  0
    0.9649    4.1640    0.0000 C   0  0  0  0  0  0  0  0  0  0  0  0
    2.3133    3.5069    0.0000 C   0  0  0  0  0  0  0  0  0  0  0  0
    2.4184    2.0105    0.0000 C   0  0  0  0  0  0  0  0  0  0  0  0
  1  2  1  0
  2  3  1  0
  3  4  1  0
  4  5  1  0
  5  6  2  0
  6  7  1  0
  7  8  2  0
  8  9  1  0
  9 10  2  0
  4 11  1  0
 11 12  2  0
 12 13  1  0
 13 14  2  0
 14 15  1  0
 15 16  2  0
  3 17  1  0
 17 18  1  0
 18 19  2  0
 19 20  1  0
 20 21  2  0
 21 22  1  0
 22 23  2  0
 17 24  1  0
 24 25  2  0
 25 26  1  0
 26 27  2  0
 27 28  1  0
 28 29  2  0
 10  5  1  0
 16 11  1  0
 23 18  1  0
 29 24  1  0
M  END
>  <linear_selectivity>  (848) 
60

>  <denticity>  (848) 
2

>  <ligand_class>  (848) 
diphosphine

$$$$
dppp_90C_toluene
     RDKit          2D

 29 32  0  0  0  0  0  0  0  0999 V2000
    1.4903   -3.3176    0.0000 C   0  0  0  0  0  0  0  0  0  0  0  0
    0.1419   -2.6604    0.0000 C   0  0  0  0  0  0  0  0  0  0  0  0
    0.0368   -1.1641    0.0000 C   0  0  0  0  0  0  0  0  0  0  0  0
   -1.3115   -0.5069    0.0000 P   0  0  0  0  0  0  0  0  0  0  0  0
   -1.4166    0.9894    0.0000 C   0  0  0  0  0  0  0  0  0  0  0  0
   -0.1733    1.8286    0.0000 C   0  0  0  0  0  0  0  0  0  0  0  0
   -0.2784    3.3249    0.0000 C   0  0  0  0  0  0  0  0  0  0  0  0
   -1.6267    3.9820    0.0000 C   0  0  0  0  0  0  0  0  0  0  0  0
   -2.8701    3.1429    0.0000 C   0  0  0  0  0  0  0  0  0  0  0  0
   -2.7650    1.6466    0.0000 C   0  0  0  0  0  0  0  0  0  0  0  0
   -2.5549   -1.3461    0.0000 C   0  0  0  0  0  0  0  0  0  0  0  0
   -3.9032   -0.6889    0.0000 C   0  0  0  0  0  0  0  0  0  0  0  0
   -5.1466   -1.5280    0.0000 C   0  0  0  0  0  0  0  0  0  0  0  0
   -5.0415   -3.0244    0.0000 C   0  0  0  0  0  0  0  0  0  0  0  0
   -3.6931   -3.6815    0.0000 C   0  0  0  0  0  0  0  0  0  0  0  0
   -2.4498   -2.8424    0.0000 C   0  0  0  0  0  0  0  0  0  0  0  0
    1.2801   -0.3249    0.0000 P   0  0  0  0  0  0  0  0  0  0  0  0
    2.6285   -0.9821    0.0000 C   0  0  0  0  0  0  0  0  0  0  0  0
    2.7336   -2.4784    0.0000 C   0  0  0  0  0  0  0  0  0  0  0  0
    4.0820   -3.1356    0.0000 C   0  0  0  0  0  0  0  0  0  0  0  0
    5.3253   -2.2964    0.0000 C   0  0  0  0  0  0  0  0  0  0  0  0
    5.2202   -0.8001    0.0000 C   0  0  0  0  0  0  0  0  0  0  0  0
    3.8718   -0.1429    0.0000 C   0  0  0  0  0  0  0  0  0  0  0  0
    1.1751    1.1714    0.0000 C   0  0  0  0  0  0  0  0  0  0  0  0
   -0.1733    1.8286    0.0000 C   0  0  0  0  0  0  0  0  0  0  0  0
   -0.2784    3.3249    0.0000 C   0  0  0  0  0  0  0  0  0  0  0  0
    0.9649    4.1640    0.0000 C   0  0  0  0  0  0  0  0  0  0  0  0
    2.3133    3.5069    0.0000 C   0  0  0  0  0  0  0  0  0  0  0  0
    2.4184    2.0105    0.0000 C   0  0  0  0  0  0  0  0  0  0  0  0
  1  2  1  0
  2  3  1  0
  3  4  1  0
  4  5  1  0
  5  6  2  0
  6  7  1  0
  7  8  2  0
  8  9  1  0
  9 10  2  0
  4 11  1  0
 11 12  2  0
 12 13  1  0
 13 14  2  0
 14 15  1  0
 15 16  2  0
  3 17  1  0
 17 18  1  0
 18 19  2  0
 19 20  1  0
 20 21  2  0
 21 22  1  0
 22 23  2  0
 17 24  1  0
 24 25  2  0
 25 26  1  0
 26 27  2  0
 27 28  1  0
 28 29  2  0
 10  5  1  0
 16 11  1  0
 23 18  1  0
 29 24  1  0
M  END
>  <linear_selectivity>  (849) 
59

>  <denticity>  (849) 
2

>  <ligand_class>  (849) 
diphosphine

$$$$
dppp_90C_THF
     RDKit          2D

 29 32  0  0  0  0  0  0  0  0999 V2000
    1.4903   -3.3176    0.0000 C   0  0  0  0  0  0  0  0  0  0  0  0
    0.1419   -2.6604    0.0000 C   0  0  0  0  0  0  0  0  0  0  0  0
    0.0368   -1.1641    0.0000 C   0  0  0  0  0  0  0  0  0  0  0  0
   -1.3115   -0.5069    0.0000 P   0  0  0  0  0  0  0  0  0  0  0  0
   -1.4166    0.9894    0.0000 C   0  0  0  0  0  0  0  0  0  0  0  0
   -0.1733    1.8286    0.0000 C   0  0  0  0  0  0  0  0  0  0  0  0
   -0.2784    3.3249    0.0000 C   0  0  0  0  0  0  0  0  0  0  0  0
   -1.6267    3.9820    0.0000 C   0  0  0  0  0  0  0  0  0  0  0  0
   -2.8701    3.1429    0.0000 C   0  0  0  0  0  0  0  0  0  0  0  0
   -2.7650    1.6466    0.0000 C   0  0  0  0  0  0  0  0  0  0  0  0
   -2.5549   -1.3461    0.0000 C   0  0  0  0  0  0  0  0  0  0  0  0
   -3.9032   -0.6889    0.0000 C   0  0  0  0  0  0  0  0  0  0  0  0
   -5.1466   -1.5280    0.0000 C   0  0  0  0  0  0  0  0  0  0  0  0
   -5.0415   -3.0244    0.0000 C   0  0  0  0  0  0  0  0  0  0  0  0
   -3.6931   -3.6815    0.0000 C   0  0  0  0  0  0  0  0  0  0  0  0
   -2.4498   -2.8424    0.0000 C   0  0  0  0  0  0  0  0  0  0  0  0
    1.2801   -0.3249    0.0000 P   0  0  0  0  0  0  0  0  0  0  0  0
    2.6285   -0.9821    0.0000 C   0  0  0  0  0  0  0  0  0  0  0  0
    2.7336   -2.4784    0.0000 C   0  0  0  0  0  0  0  0  0  0  0  0
    4.0820   -3.1356    0.0000 C   0  0  0  0  0  0  0  0  0  0  0  0
    5.3253   -2.2964    0.0000 C   0  0  0  0  0  0  0  0  0  0  0  0
    5.2202   -0.8001    0.0000 C   0  0  0  0  0  0  0  0  0  0  0  0
    3.8718   -0.1429    0.0000 C   0  0  0  0  0  0  0  0  0  0  0  0
    1.1751    1.1714    0.0000 C   0  0  0  0  0  0  0  0  0  0  0  0
   -0.1733    1.8286    0.0000 C   0  0  0  0  0  0  0  0  0  0  0  0
   -0.2784    3.3249    0.0000 C   0  0  0  0  0  0  0  0  0  0  0  0
    0.9649    4.1640    0.0000 C   0  0  0  0  0  0  0  0  0  0  0  0
    2.3133    3.5069    0.0000 C   0  0  0  0  0  0  0  0  0  0  0  0
    2.4184    2.0105    0.0000 C   0  0  0  0  0  0  0  0  0  0  0  0
  1  2  1  0
  2  3  1  0
  3  4  1  0
  4  5  1  0
  5  6  2  0
  6  7  1  0
  7  8  2  0
  8  9  1  0
  9 10  2  0
  4 11  1  0
 11 12  2  0
 12 13  1  0
 13 14  2  0
 14 15  1  0
 15 16  2  0
  3 17  1  0
 17 18  1  0
 18 19  2  0
 19 20  1  0
 20 21  2  0
 21 22  1  0
 22 23  2  0
 17 24  1  0
 24 25  2  0
 25 26  1  0
 26 27  2  0
 27 28  1  0
 28 29  2  0
 10  5  1  0
 16 11  1  0
 23 18  1  0
 29 24  1  0
M  END
>  <linear_selectivity>  (850) 
58

>  <denticity>  (850) 
2

>  <ligand_class>  (850) 
diphosphine

$$$$
dppp_90C_hexane
     RDKit          2D

 29 32  0  0  0  0  0  0  0  0999 V2000
    1.4903   -3.3176    0.0000 C   0  0  0  0  0  0  0  0  0  0  0  0
    0.1419   -2.6604    0.0000 C   0  0  0  0  0  0  0  0  0  0  0  0
    0.0368   -1.1641    0.0000 C   0  0  0  0  0  0  0  0  0  0  0  0
   -1.3115   -0.5069    0.0000 P   0  0  0  0  0  0  0  0  0  0  0  0
   -1.4166    0.9894    0.0000 C   0  0  0  0  0  0  0  0  0  0  0  0
   -0.1733    1.8286    0.0000 C   0  0  0  0  0  0  0  0  0  0  0  0
   -0.2784    3.3249    0.0000 C   0  0  0  0  0  0  0  0  0  0  0  0
   -1.6267    3.9820    0.0000 C   0  0  0  0  0  0  0  0  0  0  0  0
   -2.8701    3.1429    0.0000 C   0  0  0  0  0  0  0  0  0  0  0  0
   -2.7650    1.6466    0.0000 C   0  0  0  0  0  0  0  0  0  0  0  0
   -2.5549   -1.3461    0.0000 C   0  0  0  0  0  0  0  0  0  0  0  0
   -3.9032   -0.6889    0.0000 C   0  0  0  0  0  0  0  0  0  0  0  0
   -5.1466   -1.5280    0.0000 C   0  0  0  0  0  0  0  0  0  0  0  0
   -5.0415   -3.0244    0.0000 C   0  0  0  0  0  0  0  0  0  0  0  0
   -3.6931   -3.6815    0.0000 C   0  0  0  0  0  0  0  0  0  0  0  0
   -2.4498   -2.8424    0.0000 C   0  0  0  0  0  0  0  0  0  0  0  0
    1.2801   -0.3249    0.0000 P   0  0  0  0  0  0  0  0  0  0  0  0
    2.6285   -0.9821    0.0000 C   0  0  0  0  0  0  0  0  0  0  0  0
    2.7336   -2.4784    0.0000 C   0  0  0  0  0  0  0  0  0  0  0  0
    4.0820   -3.1356    0.0000 C   0  0  0  0  0  0  0  0  0  0  0  0
    5.3253   -2.2964    0.0000 C   0  0  0  0  0  0  0  0  0  0  0  0
    5.2202   -0.8001    0.0000 C   0  0  0  0  0  0  0  0  0  0  0  0
    3.8718   -0.1429    0.0000 C   0  0  0  0  0  0  0  0  0  0  0  0
    1.1751    1.1714    0.0000 C   0  0  0  0  0  0  0  0  0  0  0  0
   -0.1733    1.8286    0.0000 C   0  0  0  0  0  0  0  0  0  0  0  0
   -0.2784    3.3249    0.0000 C   0  0  0  0  0  0  0  0  0  0  0  0
    0.9649    4.1640    0.0000 C   0  0  0  0  0  0  0  0  0  0  0  0
    2.3133    3.5069    0.0000 C   0  0  0  0  0  0  0  0  0  0  0  0
    2.4184    2.0105    0.0000 C   0  0  0  0  0  0  0  0  0  0  0  0
  1  2  1  0
  2  3  1  0
  3  4  1  0
  4  5  1  0
  5  6  2  0
  6  7  1  0
  7  8  2  0
  8  9  1  0
  9 10  2  0
  4 11  1  0
 11 12  2  0
 12 13  1  0
 13 14  2  0
 14 15  1  0
 15 16  2  0
  3 17  1  0
 17 18  1  0
 18 19  2  0
 19 20  1  0
 20 21  2  0
 21 22  1  0
 22 23  2  0
 17 24  1  0
 24 25  2  0
 25 26  1  0
 26 27  2  0
 27 28  1  0
 28 29  2  0
 10  5  1  0
 16 11  1  0
 23 18  1  0
 29 24  1  0
M  END
>  <linear_selectivity>  (851) 
61

>  <denticity>  (851) 
2

>  <ligand_class>  (851) 
diphosphine

$$$$
dppp_90C_benzene
     RDKit          2D

 29 32  0  0  0  0  0  0  0  0999 V2000
    1.4903   -3.3176    0.0000 C   0  0  0  0  0  0  0  0  0  0  0  0
    0.1419   -2.6604    0.0000 C   0  0  0  0  0  0  0  0  0  0  0  0
    0.0368   -1.1641    0.0000 C   0  0  0  0  0  0  0  0  0  0  0  0
   -1.3115   -0.5069    0.0000 P   0  0  0  0  0  0  0  0  0  0  0  0
   -1.4166    0.9894    0.0000 C   0  0  0  0  0  0  0  0  0  0  0  0
   -0.1733    1.8286    0.0000 C   0  0  0  0  0  0  0  0  0  0  0  0
   -0.2784    3.3249    0.0000 C   0  0  0  0  0  0  0  0  0  0  0  0
   -1.6267    3.9820    0.0000 C   0  0  0  0  0  0  0  0  0  0  0  0
   -2.8701    3.1429    0.0000 C   0  0  0  0  0  0  0  0  0  0  0  0
   -2.7650    1.6466    0.0000 C   0  0  0  0  0  0  0  0  0  0  0  0
   -2.5549   -1.3461    0.0000 C   0  0  0  0  0  0  0  0  0  0  0  0
   -3.9032   -0.6889    0.0000 C   0  0  0  0  0  0  0  0  0  0  0  0
   -5.1466   -1.5280    0.0000 C   0  0  0  0  0  0  0  0  0  0  0  0
   -5.0415   -3.0244    0.0000 C   0  0  0  0  0  0  0  0  0  0  0  0
   -3.6931   -3.6815    0.0000 C   0  0  0  0  0  0  0  0  0  0  0  0
   -2.4498   -2.8424    0.0000 C   0  0  0  0  0  0  0  0  0  0  0  0
    1.2801   -0.3249    0.0000 P   0  0  0  0  0  0  0  0  0  0  0  0
    2.6285   -0.9821    0.0000 C   0  0  0  0  0  0  0  0  0  0  0  0
    2.7336   -2.4784    0.0000 C   0  0  0  0  0  0  0  0  0  0  0  0
    4.0820   -3.1356    0.0000 C   0  0  0  0  0  0  0  0  0  0  0  0
    5.3253   -2.2964    0.0000 C   0  0  0  0  0  0  0  0  0  0  0  0
    5.2202   -0.8001    0.0000 C   0  0  0  0  0  0  0  0  0  0  0  0
    3.8718   -0.1429    0.0000 C   0  0  0  0  0  0  0  0  0  0  0  0
    1.1751    1.1714    0.0000 C   0  0  0  0  0  0  0  0  0  0  0  0
   -0.1733    1.8286    0.0000 C   0  0  0  0  0  0  0  0  0  0  0  0
   -0.2784    3.3249    0.0000 C   0  0  0  0  0  0  0  0  0  0  0  0
    0.9649    4.1640    0.0000 C   0  0  0  0  0  0  0  0  0  0  0  0
    2.3133    3.5069    0.0000 C   0  0  0  0  0  0  0  0  0  0  0  0
    2.4184    2.0105    0.0000 C   0  0  0  0  0  0  0  0  0  0  0  0
  1  2  1  0
  2  3  1  0
  3  4  1  0
  4  5  1  0
  5  6  2  0
  6  7  1  0
  7  8  2  0
  8  9  1  0
  9 10  2  0
  4 11  1  0
 11 12  2  0
 12 13  1  0
 13 14  2  0
 14 15  1  0
 15 16  2  0
  3 17  1  0
 17 18  1  0
 18 19  2  0
 19 20  1  0
 20 21  2  0
 21 22  1  0
 22 23  2  0
 17 24  1  0
 24 25  2  0
 25 26  1  0
 26 27  2  0
 27 28  1  0
 28 29  2  0
 10  5  1  0
 16 11  1  0
 23 18  1  0
 29 24  1  0
M  END
>  <linear_selectivity>  (852) 
66

>  <denticity>  (852) 
2

>  <ligand_class>  (852) 
diphosphine

$$$$
dppp_100C_toluene
     RDKit          2D

 29 32  0  0  0  0  0  0  0  0999 V2000
    1.4903   -3.3176    0.0000 C   0  0  0  0  0  0  0  0  0  0  0  0
    0.1419   -2.6604    0.0000 C   0  0  0  0  0  0  0  0  0  0  0  0
    0.0368   -1.1641    0.0000 C   0  0  0  0  0  0  0  0  0  0  0  0
   -1.3115   -0.5069    0.0000 P   0  0  0  0  0  0  0  0  0  0  0  0
   -1.4166    0.9894    0.0000 C   0  0  0  0  0  0  0  0  0  0  0  0
   -0.1733    1.8286    0.0000 C   0  0  0  0  0  0  0  0  0  0  0  0
   -0.2784    3.3249    0.0000 C   0  0  0  0  0  0  0  0  0  0  0  0
   -1.6267    3.9820    0.0000 C   0  0  0  0  0  0  0  0  0  0  0  0
   -2.8701    3.1429    0.0000 C   0  0  0  0  0  0  0  0  0  0  0  0
   -2.7650    1.6466    0.0000 C   0  0  0  0  0  0  0  0  0  0  0  0
   -2.5549   -1.3461    0.0000 C   0  0  0  0  0  0  0  0  0  0  0  0
   -3.9032   -0.6889    0.0000 C   0  0  0  0  0  0  0  0  0  0  0  0
   -5.1466   -1.5280    0.0000 C   0  0  0  0  0  0  0  0  0  0  0  0
   -5.0415   -3.0244    0.0000 C   0  0  0  0  0  0  0  0  0  0  0  0
   -3.6931   -3.6815    0.0000 C   0  0  0  0  0  0  0  0  0  0  0  0
   -2.4498   -2.8424    0.0000 C   0  0  0  0  0  0  0  0  0  0  0  0
    1.2801   -0.3249    0.0000 P   0  0  0  0  0  0  0  0  0  0  0  0
    2.6285   -0.9821    0.0000 C   0  0  0  0  0  0  0  0  0  0  0  0
    2.7336   -2.4784    0.0000 C   0  0  0  0  0  0  0  0  0  0  0  0
    4.0820   -3.1356    0.0000 C   0  0  0  0  0  0  0  0  0  0  0  0
    5.3253   -2.2964    0.0000 C   0  0  0  0  0  0  0  0  0  0  0  0
    5.2202   -0.8001    0.0000 C   0  0  0  0  0  0  0  0  0  0  0  0
    3.8718   -0.1429    0.0000 C   0  0  0  0  0  0  0  0  0  0  0  0
    1.1751    1.1714    0.0000 C   0  0  0  0  0  0  0  0  0  0  0  0
   -0.1733    1.8286    0.0000 C   0  0  0  0  0  0  0  0  0  0  0  0
   -0.2784    3.3249    0.0000 C   0  0  0  0  0  0  0  0  0  0  0  0
    0.9649    4.1640    0.0000 C   0  0  0  0  0  0  0  0  0  0  0  0
    2.3133    3.5069    0.0000 C   0  0  0  0  0  0  0  0  0  0  0  0
    2.4184    2.0105    0.0000 C   0  0  0  0  0  0  0  0  0  0  0  0
  1  2  1  0
  2  3  1  0
  3  4  1  0
  4  5  1  0
  5  6  2  0
  6  7  1  0
  7  8  2  0
  8  9  1  0
  9 10  2  0
  4 11  1  0
 11 12  2  0
 12 13  1  0
 13 14  2  0
 14 15  1  0
 15 16  2  0
  3 17  1  0
 17 18  1  0
 18 19  2  0
 19 20  1  0
 20 21  2  0
 21 22  1  0
 22 23  2  0
 17 24  1  0
 24 25  2  0
 25 26  1  0
 26 27  2  0
 27 28  1  0
 28 29  2  0
 10  5  1  0
 16 11  1  0
 23 18  1  0
 29 24  1  0
M  END
>  <linear_selectivity>  (853) 
63

>  <denticity>  (853) 
2

>  <ligand_class>  (853) 
diphosphine

$$$$
dppp_100C_THF
     RDKit          2D

 29 32  0  0  0  0  0  0  0  0999 V2000
    1.4903   -3.3176    0.0000 C   0  0  0  0  0  0  0  0  0  0  0  0
    0.1419   -2.6604    0.0000 C   0  0  0  0  0  0  0  0  0  0  0  0
    0.0368   -1.1641    0.0000 C   0  0  0  0  0  0  0  0  0  0  0  0
   -1.3115   -0.5069    0.0000 P   0  0  0  0  0  0  0  0  0  0  0  0
   -1.4166    0.9894    0.0000 C   0  0  0  0  0  0  0  0  0  0  0  0
   -0.1733    1.8286    0.0000 C   0  0  0  0  0  0  0  0  0  0  0  0
   -0.2784    3.3249    0.0000 C   0  0  0  0  0  0  0  0  0  0  0  0
   -1.6267    3.9820    0.0000 C   0  0  0  0  0  0  0  0  0  0  0  0
   -2.8701    3.1429    0.0000 C   0  0  0  0  0  0  0  0  0  0  0  0
   -2.7650    1.6466    0.0000 C   0  0  0  0  0  0  0  0  0  0  0  0
   -2.5549   -1.3461    0.0000 C   0  0  0  0  0  0  0  0  0  0  0  0
   -3.9032   -0.6889    0.0000 C   0  0  0  0  0  0  0  0  0  0  0  0
   -5.1466   -1.5280    0.0000 C   0  0  0  0  0  0  0  0  0  0  0  0
   -5.0415   -3.0244    0.0000 C   0  0  0  0  0  0  0  0  0  0  0  0
   -3.6931   -3.6815    0.0000 C   0  0  0  0  0  0  0  0  0  0  0  0
   -2.4498   -2.8424    0.0000 C   0  0  0  0  0  0  0  0  0  0  0  0
    1.2801   -0.3249    0.0000 P   0  0  0  0  0  0  0  0  0  0  0  0
    2.6285   -0.9821    0.0000 C   0  0  0  0  0  0  0  0  0  0  0  0
    2.7336   -2.4784    0.0000 C   0  0  0  0  0  0  0  0  0  0  0  0
    4.0820   -3.1356    0.0000 C   0  0  0  0  0  0  0  0  0  0  0  0
    5.3253   -2.2964    0.0000 C   0  0  0  0  0  0  0  0  0  0  0  0
    5.2202   -0.8001    0.0000 C   0  0  0  0  0  0  0  0  0  0  0  0
    3.8718   -0.1429    0.0000 C   0  0  0  0  0  0  0  0  0  0  0  0
    1.1751    1.1714    0.0000 C   0  0  0  0  0  0  0  0  0  0  0  0
   -0.1733    1.8286    0.0000 C   0  0  0  0  0  0  0  0  0  0  0  0
   -0.2784    3.3249    0.0000 C   0  0  0  0  0  0  0  0  0  0  0  0
    0.9649    4.1640    0.0000 C   0  0  0  0  0  0  0  0  0  0  0  0
    2.3133    3.5069    0.0000 C   0  0  0  0  0  0  0  0  0  0  0  0
    2.4184    2.0105    0.0000 C   0  0  0  0  0  0  0  0  0  0  0  0
  1  2  1  0
  2  3  1  0
  3  4  1  0
  4  5  1  0
  5  6  2  0
  6  7  1  0
  7  8  2  0
  8  9  1  0
  9 10  2  0
  4 11  1  0
 11 12  2  0
 12 13  1  0
 13 14  2  0
 14 15  1  0
 15 16  2  0
  3 17  1  0
 17 18  1  0
 18 19  2  0
 19 20  1  0
 20 21  2  0
 21 22  1  0
 22 23  2  0
 17 24  1  0
 24 25  2  0
 25 26  1  0
 26 27  2  0
 27 28  1  0
 28 29  2  0
 10  5  1  0
 16 11  1  0
 23 18  1  0
 29 24  1  0
M  END
>  <linear_selectivity>  (854) 
55

>  <denticity>  (854) 
2

>  <ligand_class>  (854) 
diphosphine

$$$$
dppp_100C_dioxane
     RDKit          2D

 29 32  0  0  0  0  0  0  0  0999 V2000
    1.4903   -3.3176    0.0000 C   0  0  0  0  0  0  0  0  0  0  0  0
    0.1419   -2.6604    0.0000 C   0  0  0  0  0  0  0  0  0  0  0  0
    0.0368   -1.1641    0.0000 C   0  0  0  0  0  0  0  0  0  0  0  0
   -1.3115   -0.5069    0.0000 P   0  0  0  0  0  0  0  0  0  0  0  0
   -1.4166    0.9894    0.0000 C   0  0  0  0  0  0  0  0  0  0  0  0
   -0.1733    1.8286    0.0000 C   0  0  0  0  0  0  0  0  0  0  0  0
   -0.2784    3.3249    0.0000 C   0  0  0  0  0  0  0  0  0  0  0  0
   -1.6267    3.9820    0.0000 C   0  0  0  0  0  0  0  0  0  0  0  0
   -2.8701    3.1429    0.0000 C   0  0  0  0  0  0  0  0  0  0  0  0
   -2.7650    1.6466    0.0000 C   0  0  0  0  0  0  0  0  0  0  0  0
   -2.5549   -1.3461    0.0000 C   0  0  0  0  0  0  0  0  0  0  0  0
   -3.9032   -0.6889    0.0000 C   0  0  0  0  0  0  0  0  0  0  0  0
   -5.1466   -1.5280    0.0000 C   0  0  0  0  0  0  0  0  0  0  0  0
   -5.0415   -3.0244    0.0000 C   0  0  0  0  0  0  0  0  0  0  0  0
   -3.6931   -3.6815    0.0000 C   0  0  0  0  0  0  0  0  0  0  0  0
   -2.4498   -2.8424    0.0000 C   0  0  0  0  0  0  0  0  0  0  0  0
    1.2801   -0.3249    0.0000 P   0  0  0  0  0  0  0  0  0  0  0  0
    2.6285   -0.9821    0.0000 C   0  0  0  0  0  0  0  0  0  0  0  0
    2.7336   -2.4784    0.0000 C   0  0  0  0  0  0  0  0  0  0  0  0
    4.0820   -3.1356    0.0000 C   0  0  0  0  0  0  0  0  0  0  0  0
    5.3253   -2.2964    0.0000 C   0  0  0  0  0  0  0  0  0  0  0  0
    5.2202   -0.8001    0.0000 C   0  0  0  0  0  0  0  0  0  0  0  0
    3.8718   -0.1429    0.0000 C   0  0  0  0  0  0  0  0  0  0  0  0
    1.1751    1.1714    0.0000 C   0  0  0  0  0  0  0  0  0  0  0  0
   -0.1733    1.8286    0.0000 C   0  0  0  0  0  0  0  0  0  0  0  0
   -0.2784    3.3249    0.0000 C   0  0  0  0  0  0  0  0  0  0  0  0
    0.9649    4.1640    0.0000 C   0  0  0  0  0  0  0  0  0  0  0  0
    2.3133    3.5069    0.0000 C   0  0  0  0  0  0  0  0  0  0  0  0
    2.4184    2.0105    0.0000 C   0  0  0  0  0  0  0  0  0  0  0  0
  1  2  1  0
  2  3  1  0
  3  4  1  0
  4  5  1  0
  5  6  2  0
  6  7  1  0
  7  8  2  0
  8  9  1  0
  9 10  2  0
  4 11  1  0
 11 12  2  0
 12 13  1  0
 13 14  2  0
 14 15  1  0
 15 16  2  0
  3 17  1  0
 17 18  1  0
 18 19  2  0
 19 20  1  0
 20 21  2  0
 21 22  1  0
 22 23  2  0
 17 24  1  0
 24 25  2  0
 25 26  1  0
 26 27  2  0
 27 28  1  0
 28 29  2  0
 10  5  1  0
 16 11  1  0
 23 18  1  0
 29 24  1  0
M  END
>  <linear_selectivity>  (855) 
54

>  <denticity>  (855) 
2

>  <ligand_class>  (855) 
diphosphine

$$$$
dppp_100C_hexane
     RDKit          2D

 29 32  0  0  0  0  0  0  0  0999 V2000
    1.4903   -3.3176    0.0000 C   0  0  0  0  0  0  0  0  0  0  0  0
    0.1419   -2.6604    0.0000 C   0  0  0  0  0  0  0  0  0  0  0  0
    0.0368   -1.1641    0.0000 C   0  0  0  0  0  0  0  0  0  0  0  0
   -1.3115   -0.5069    0.0000 P   0  0  0  0  0  0  0  0  0  0  0  0
   -1.4166    0.9894    0.0000 C   0  0  0  0  0  0  0  0  0  0  0  0
   -0.1733    1.8286    0.0000 C   0  0  0  0  0  0  0  0  0  0  0  0
   -0.2784    3.3249    0.0000 C   0  0  0  0  0  0  0  0  0  0  0  0
   -1.6267    3.9820    0.0000 C   0  0  0  0  0  0  0  0  0  0  0  0
   -2.8701    3.1429    0.0000 C   0  0  0  0  0  0  0  0  0  0  0  0
   -2.7650    1.6466    0.0000 C   0  0  0  0  0  0  0  0  0  0  0  0
   -2.5549   -1.3461    0.0000 C   0  0  0  0  0  0  0  0  0  0  0  0
   -3.9032   -0.6889    0.0000 C   0  0  0  0  0  0  0  0  0  0  0  0
   -5.1466   -1.5280    0.0000 C   0  0  0  0  0  0  0  0  0  0  0  0
   -5.0415   -3.0244    0.0000 C   0  0  0  0  0  0  0  0  0  0  0  0
   -3.6931   -3.6815    0.0000 C   0  0  0  0  0  0  0  0  0  0  0  0
   -2.4498   -2.8424    0.0000 C   0  0  0  0  0  0  0  0  0  0  0  0
    1.2801   -0.3249    0.0000 P   0  0  0  0  0  0  0  0  0  0  0  0
    2.6285   -0.9821    0.0000 C   0  0  0  0  0  0  0  0  0  0  0  0
    2.7336   -2.4784    0.0000 C   0  0  0  0  0  0  0  0  0  0  0  0
    4.0820   -3.1356    0.0000 C   0  0  0  0  0  0  0  0  0  0  0  0
    5.3253   -2.2964    0.0000 C   0  0  0  0  0  0  0  0  0  0  0  0
    5.2202   -0.8001    0.0000 C   0  0  0  0  0  0  0  0  0  0  0  0
    3.8718   -0.1429    0.0000 C   0  0  0  0  0  0  0  0  0  0  0  0
    1.1751    1.1714    0.0000 C   0  0  0  0  0  0  0  0  0  0  0  0
   -0.1733    1.8286    0.0000 C   0  0  0  0  0  0  0  0  0  0  0  0
   -0.2784    3.3249    0.0000 C   0  0  0  0  0  0  0  0  0  0  0  0
    0.9649    4.1640    0.0000 C   0  0  0  0  0  0  0  0  0  0  0  0
    2.3133    3.5069    0.0000 C   0  0  0  0  0  0  0  0  0  0  0  0
    2.4184    2.0105    0.0000 C   0  0  0  0  0  0  0  0  0  0  0  0
  1  2  1  0
  2  3  1  0
  3  4  1  0
  4  5  1  0
  5  6  2  0
  6  7  1  0
  7  8  2  0
  8  9  1  0
  9 10  2  0
  4 11  1  0
 11 12  2  0
 12 13  1  0
 13 14  2  0
 14 15  1  0
 15 16  2  0
  3 17  1  0
 17 18  1  0
 18 19  2  0
 19 20  1  0
 20 21  2  0
 21 22  1  0
 22 23  2  0
 17 24  1  0
 24 25  2  0
 25 26  1  0
 26 27  2  0
 27 28  1  0
 28 29  2  0
 10  5  1  0
 16 11  1  0
 23 18  1  0
 29 24  1  0
M  END
>  <linear_selectivity>  (856) 
58

>  <denticity>  (856) 
2

>  <ligand_class>  (856) 
diphosphine

$$$$
dppp_100C_benzene
     RDKit          2D

 29 32  0  0  0  0  0  0  0  0999 V2000
    1.4903   -3.3176    0.0000 C   0  0  0  0  0  0  0  0  0  0  0  0
    0.1419   -2.6604    0.0000 C   0  0  0  0  0  0  0  0  0  0  0  0
    0.0368   -1.1641    0.0000 C   0  0  0  0  0  0  0  0  0  0  0  0
   -1.3115   -0.5069    0.0000 P   0  0  0  0  0  0  0  0  0  0  0  0
   -1.4166    0.9894    0.0000 C   0  0  0  0  0  0  0  0  0  0  0  0
   -0.1733    1.8286    0.0000 C   0  0  0  0  0  0  0  0  0  0  0  0
   -0.2784    3.3249    0.0000 C   0  0  0  0  0  0  0  0  0  0  0  0
   -1.6267    3.9820    0.0000 C   0  0  0  0  0  0  0  0  0  0  0  0
   -2.8701    3.1429    0.0000 C   0  0  0  0  0  0  0  0  0  0  0  0
   -2.7650    1.6466    0.0000 C   0  0  0  0  0  0  0  0  0  0  0  0
   -2.5549   -1.3461    0.0000 C   0  0  0  0  0  0  0  0  0  0  0  0
   -3.9032   -0.6889    0.0000 C   0  0  0  0  0  0  0  0  0  0  0  0
   -5.1466   -1.5280    0.0000 C   0  0  0  0  0  0  0  0  0  0  0  0
   -5.0415   -3.0244    0.0000 C   0  0  0  0  0  0  0  0  0  0  0  0
   -3.6931   -3.6815    0.0000 C   0  0  0  0  0  0  0  0  0  0  0  0
   -2.4498   -2.8424    0.0000 C   0  0  0  0  0  0  0  0  0  0  0  0
    1.2801   -0.3249    0.0000 P   0  0  0  0  0  0  0  0  0  0  0  0
    2.6285   -0.9821    0.0000 C   0  0  0  0  0  0  0  0  0  0  0  0
    2.7336   -2.4784    0.0000 C   0  0  0  0  0  0  0  0  0  0  0  0
    4.0820   -3.1356    0.0000 C   0  0  0  0  0  0  0  0  0  0  0  0
    5.3253   -2.2964    0.0000 C   0  0  0  0  0  0  0  0  0  0  0  0
    5.2202   -0.8001    0.0000 C   0  0  0  0  0  0  0  0  0  0  0  0
    3.8718   -0.1429    0.0000 C   0  0  0  0  0  0  0  0  0  0  0  0
    1.1751    1.1714    0.0000 C   0  0  0  0  0  0  0  0  0  0  0  0
   -0.1733    1.8286    0.0000 C   0  0  0  0  0  0  0  0  0  0  0  0
   -0.2784    3.3249    0.0000 C   0  0  0  0  0  0  0  0  0  0  0  0
    0.9649    4.1640    0.0000 C   0  0  0  0  0  0  0  0  0  0  0  0
    2.3133    3.5069    0.0000 C   0  0  0  0  0  0  0  0  0  0  0  0
    2.4184    2.0105    0.0000 C   0  0  0  0  0  0  0  0  0  0  0  0
  1  2  1  0
  2  3  1  0
  3  4  1  0
  4  5  1  0
  5  6  2  0
  6  7  1  0
  7  8  2  0
  8  9  1  0
  9 10  2  0
  4 11  1  0
 11 12  2  0
 12 13  1  0
 13 14  2  0
 14 15  1  0
 15 16  2  0
  3 17  1  0
 17 18  1  0
 18 19  2  0
 19 20  1  0
 20 21  2  0
 21 22  1  0
 22 23  2  0
 17 24  1  0
 24 25  2  0
 25 26  1  0
 26 27  2  0
 27 28  1  0
 28 29  2  0
 10  5  1  0
 16 11  1  0
 23 18  1  0
 29 24  1  0
M  END
>  <linear_selectivity>  (857) 
57

>  <denticity>  (857) 
2

>  <ligand_class>  (857) 
diphosphine

$$$$
dppp_100C_xylene
     RDKit          2D

 29 32  0  0  0  0  0  0  0  0999 V2000
    1.4903   -3.3176    0.0000 C   0  0  0  0  0  0  0  0  0  0  0  0
    0.1419   -2.6604    0.0000 C   0  0  0  0  0  0  0  0  0  0  0  0
    0.0368   -1.1641    0.0000 C   0  0  0  0  0  0  0  0  0  0  0  0
   -1.3115   -0.5069    0.0000 P   0  0  0  0  0  0  0  0  0  0  0  0
   -1.4166    0.9894    0.0000 C   0  0  0  0  0  0  0  0  0  0  0  0
   -0.1733    1.8286    0.0000 C   0  0  0  0  0  0  0  0  0  0  0  0
   -0.2784    3.3249    0.0000 C   0  0  0  0  0  0  0  0  0  0  0  0
   -1.6267    3.9820    0.0000 C   0  0  0  0  0  0  0  0  0  0  0  0
   -2.8701    3.1429    0.0000 C   0  0  0  0  0  0  0  0  0  0  0  0
   -2.7650    1.6466    0.0000 C   0  0  0  0  0  0  0  0  0  0  0  0
   -2.5549   -1.3461    0.0000 C   0  0  0  0  0  0  0  0  0  0  0  0
   -3.9032   -0.6889    0.0000 C   0  0  0  0  0  0  0  0  0  0  0  0
   -5.1466   -1.5280    0.0000 C   0  0  0  0  0  0  0  0  0  0  0  0
   -5.0415   -3.0244    0.0000 C   0  0  0  0  0  0  0  0  0  0  0  0
   -3.6931   -3.6815    0.0000 C   0  0  0  0  0  0  0  0  0  0  0  0
   -2.4498   -2.8424    0.0000 C   0  0  0  0  0  0  0  0  0  0  0  0
    1.2801   -0.3249    0.0000 P   0  0  0  0  0  0  0  0  0  0  0  0
    2.6285   -0.9821    0.0000 C   0  0  0  0  0  0  0  0  0  0  0  0
    2.7336   -2.4784    0.0000 C   0  0  0  0  0  0  0  0  0  0  0  0
    4.0820   -3.1356    0.0000 C   0  0  0  0  0  0  0  0  0  0  0  0
    5.3253   -2.2964    0.0000 C   0  0  0  0  0  0  0  0  0  0  0  0
    5.2202   -0.8001    0.0000 C   0  0  0  0  0  0  0  0  0  0  0  0
    3.8718   -0.1429    0.0000 C   0  0  0  0  0  0  0  0  0  0  0  0
    1.1751    1.1714    0.0000 C   0  0  0  0  0  0  0  0  0  0  0  0
   -0.1733    1.8286    0.0000 C   0  0  0  0  0  0  0  0  0  0  0  0
   -0.2784    3.3249    0.0000 C   0  0  0  0  0  0  0  0  0  0  0  0
    0.9649    4.1640    0.0000 C   0  0  0  0  0  0  0  0  0  0  0  0
    2.3133    3.5069    0.0000 C   0  0  0  0  0  0  0  0  0  0  0  0
    2.4184    2.0105    0.0000 C   0  0  0  0  0  0  0  0  0  0  0  0
  1  2  1  0
  2  3  1  0
  3  4  1  0
  4  5  1  0
  5  6  2  0
  6  7  1  0
  7  8  2  0
  8  9  1  0
  9 10  2  0
  4 11  1  0
 11 12  2  0
 12 13  1  0
 13 14  2  0
 14 15  1  0
 15 16  2  0
  3 17  1  0
 17 18  1  0
 18 19  2  0
 19 20  1  0
 20 21  2  0
 21 22  1  0
 22 23  2  0
 17 24  1  0
 24 25  2  0
 25 26  1  0
 26 27  2  0
 27 28  1  0
 28 29  2  0
 10  5  1  0
 16 11  1  0
 23 18  1  0
 29 24  1  0
M  END
>  <linear_selectivity>  (858) 
59

>  <denticity>  (858) 
2

>  <ligand_class>  (858) 
diphosphine

$$$$
dppp_110C_toluene
     RDKit          2D

 29 32  0  0  0  0  0  0  0  0999 V2000
    1.4903   -3.3176    0.0000 C   0  0  0  0  0  0  0  0  0  0  0  0
    0.1419   -2.6604    0.0000 C   0  0  0  0  0  0  0  0  0  0  0  0
    0.0368   -1.1641    0.0000 C   0  0  0  0  0  0  0  0  0  0  0  0
   -1.3115   -0.5069    0.0000 P   0  0  0  0  0  0  0  0  0  0  0  0
   -1.4166    0.9894    0.0000 C   0  0  0  0  0  0  0  0  0  0  0  0
   -0.1733    1.8286    0.0000 C   0  0  0  0  0  0  0  0  0  0  0  0
   -0.2784    3.3249    0.0000 C   0  0  0  0  0  0  0  0  0  0  0  0
   -1.6267    3.9820    0.0000 C   0  0  0  0  0  0  0  0  0  0  0  0
   -2.8701    3.1429    0.0000 C   0  0  0  0  0  0  0  0  0  0  0  0
   -2.7650    1.6466    0.0000 C   0  0  0  0  0  0  0  0  0  0  0  0
   -2.5549   -1.3461    0.0000 C   0  0  0  0  0  0  0  0  0  0  0  0
   -3.9032   -0.6889    0.0000 C   0  0  0  0  0  0  0  0  0  0  0  0
   -5.1466   -1.5280    0.0000 C   0  0  0  0  0  0  0  0  0  0  0  0
   -5.0415   -3.0244    0.0000 C   0  0  0  0  0  0  0  0  0  0  0  0
   -3.6931   -3.6815    0.0000 C   0  0  0  0  0  0  0  0  0  0  0  0
   -2.4498   -2.8424    0.0000 C   0  0  0  0  0  0  0  0  0  0  0  0
    1.2801   -0.3249    0.0000 P   0  0  0  0  0  0  0  0  0  0  0  0
    2.6285   -0.9821    0.0000 C   0  0  0  0  0  0  0  0  0  0  0  0
    2.7336   -2.4784    0.0000 C   0  0  0  0  0  0  0  0  0  0  0  0
    4.0820   -3.1356    0.0000 C   0  0  0  0  0  0  0  0  0  0  0  0
    5.3253   -2.2964    0.0000 C   0  0  0  0  0  0  0  0  0  0  0  0
    5.2202   -0.8001    0.0000 C   0  0  0  0  0  0  0  0  0  0  0  0
    3.8718   -0.1429    0.0000 C   0  0  0  0  0  0  0  0  0  0  0  0
    1.1751    1.1714    0.0000 C   0  0  0  0  0  0  0  0  0  0  0  0
   -0.1733    1.8286    0.0000 C   0  0  0  0  0  0  0  0  0  0  0  0
   -0.2784    3.3249    0.0000 C   0  0  0  0  0  0  0  0  0  0  0  0
    0.9649    4.1640    0.0000 C   0  0  0  0  0  0  0  0  0  0  0  0
    2.3133    3.5069    0.0000 C   0  0  0  0  0  0  0  0  0  0  0  0
    2.4184    2.0105    0.0000 C   0  0  0  0  0  0  0  0  0  0  0  0
  1  2  1  0
  2  3  1  0
  3  4  1  0
  4  5  1  0
  5  6  2  0
  6  7  1  0
  7  8  2  0
  8  9  1  0
  9 10  2  0
  4 11  1  0
 11 12  2  0
 12 13  1  0
 13 14  2  0
 14 15  1  0
 15 16  2  0
  3 17  1  0
 17 18  1  0
 18 19  2  0
 19 20  1  0
 20 21  2  0
 21 22  1  0
 22 23  2  0
 17 24  1  0
 24 25  2  0
 25 26  1  0
 26 27  2  0
 27 28  1  0
 28 29  2  0
 10  5  1  0
 16 11  1  0
 23 18  1  0
 29 24  1  0
M  END
>  <linear_selectivity>  (859) 
55

>  <denticity>  (859) 
2

>  <ligand_class>  (859) 
diphosphine

$$$$
dppp_110C_THF
     RDKit          2D

 29 32  0  0  0  0  0  0  0  0999 V2000
    1.4903   -3.3176    0.0000 C   0  0  0  0  0  0  0  0  0  0  0  0
    0.1419   -2.6604    0.0000 C   0  0  0  0  0  0  0  0  0  0  0  0
    0.0368   -1.1641    0.0000 C   0  0  0  0  0  0  0  0  0  0  0  0
   -1.3115   -0.5069    0.0000 P   0  0  0  0  0  0  0  0  0  0  0  0
   -1.4166    0.9894    0.0000 C   0  0  0  0  0  0  0  0  0  0  0  0
   -0.1733    1.8286    0.0000 C   0  0  0  0  0  0  0  0  0  0  0  0
   -0.2784    3.3249    0.0000 C   0  0  0  0  0  0  0  0  0  0  0  0
   -1.6267    3.9820    0.0000 C   0  0  0  0  0  0  0  0  0  0  0  0
   -2.8701    3.1429    0.0000 C   0  0  0  0  0  0  0  0  0  0  0  0
   -2.7650    1.6466    0.0000 C   0  0  0  0  0  0  0  0  0  0  0  0
   -2.5549   -1.3461    0.0000 C   0  0  0  0  0  0  0  0  0  0  0  0
   -3.9032   -0.6889    0.0000 C   0  0  0  0  0  0  0  0  0  0  0  0
   -5.1466   -1.5280    0.0000 C   0  0  0  0  0  0  0  0  0  0  0  0
   -5.0415   -3.0244    0.0000 C   0  0  0  0  0  0  0  0  0  0  0  0
   -3.6931   -3.6815    0.0000 C   0  0  0  0  0  0  0  0  0  0  0  0
   -2.4498   -2.8424    0.0000 C   0  0  0  0  0  0  0  0  0  0  0  0
    1.2801   -0.3249    0.0000 P   0  0  0  0  0  0  0  0  0  0  0  0
    2.6285   -0.9821    0.0000 C   0  0  0  0  0  0  0  0  0  0  0  0
    2.7336   -2.4784    0.0000 C   0  0  0  0  0  0  0  0  0  0  0  0
    4.0820   -3.1356    0.0000 C   0  0  0  0  0  0  0  0  0  0  0  0
    5.3253   -2.2964    0.0000 C   0  0  0  0  0  0  0  0  0  0  0  0
    5.2202   -0.8001    0.0000 C   0  0  0  0  0  0  0  0  0  0  0  0
    3.8718   -0.1429    0.0000 C   0  0  0  0  0  0  0  0  0  0  0  0
    1.1751    1.1714    0.0000 C   0  0  0  0  0  0  0  0  0  0  0  0
   -0.1733    1.8286    0.0000 C   0  0  0  0  0  0  0  0  0  0  0  0
   -0.2784    3.3249    0.0000 C   0  0  0  0  0  0  0  0  0  0  0  0
    0.9649    4.1640    0.0000 C   0  0  0  0  0  0  0  0  0  0  0  0
    2.3133    3.5069    0.0000 C   0  0  0  0  0  0  0  0  0  0  0  0
    2.4184    2.0105    0.0000 C   0  0  0  0  0  0  0  0  0  0  0  0
  1  2  1  0
  2  3  1  0
  3  4  1  0
  4  5  1  0
  5  6  2  0
  6  7  1  0
  7  8  2  0
  8  9  1  0
  9 10  2  0
  4 11  1  0
 11 12  2  0
 12 13  1  0
 13 14  2  0
 14 15  1  0
 15 16  2  0
  3 17  1  0
 17 18  1  0
 18 19  2  0
 19 20  1  0
 20 21  2  0
 21 22  1  0
 22 23  2  0
 17 24  1  0
 24 25  2  0
 25 26  1  0
 26 27  2  0
 27 28  1  0
 28 29  2  0
 10  5  1  0
 16 11  1  0
 23 18  1  0
 29 24  1  0
M  END
>  <linear_selectivity>  (860) 
51

>  <denticity>  (860) 
2

>  <ligand_class>  (860) 
diphosphine

$$$$
dppp_110C_dioxane
     RDKit          2D

 29 32  0  0  0  0  0  0  0  0999 V2000
    1.4903   -3.3176    0.0000 C   0  0  0  0  0  0  0  0  0  0  0  0
    0.1419   -2.6604    0.0000 C   0  0  0  0  0  0  0  0  0  0  0  0
    0.0368   -1.1641    0.0000 C   0  0  0  0  0  0  0  0  0  0  0  0
   -1.3115   -0.5069    0.0000 P   0  0  0  0  0  0  0  0  0  0  0  0
   -1.4166    0.9894    0.0000 C   0  0  0  0  0  0  0  0  0  0  0  0
   -0.1733    1.8286    0.0000 C   0  0  0  0  0  0  0  0  0  0  0  0
   -0.2784    3.3249    0.0000 C   0  0  0  0  0  0  0  0  0  0  0  0
   -1.6267    3.9820    0.0000 C   0  0  0  0  0  0  0  0  0  0  0  0
   -2.8701    3.1429    0.0000 C   0  0  0  0  0  0  0  0  0  0  0  0
   -2.7650    1.6466    0.0000 C   0  0  0  0  0  0  0  0  0  0  0  0
   -2.5549   -1.3461    0.0000 C   0  0  0  0  0  0  0  0  0  0  0  0
   -3.9032   -0.6889    0.0000 C   0  0  0  0  0  0  0  0  0  0  0  0
   -5.1466   -1.5280    0.0000 C   0  0  0  0  0  0  0  0  0  0  0  0
   -5.0415   -3.0244    0.0000 C   0  0  0  0  0  0  0  0  0  0  0  0
   -3.6931   -3.6815    0.0000 C   0  0  0  0  0  0  0  0  0  0  0  0
   -2.4498   -2.8424    0.0000 C   0  0  0  0  0  0  0  0  0  0  0  0
    1.2801   -0.3249    0.0000 P   0  0  0  0  0  0  0  0  0  0  0  0
    2.6285   -0.9821    0.0000 C   0  0  0  0  0  0  0  0  0  0  0  0
    2.7336   -2.4784    0.0000 C   0  0  0  0  0  0  0  0  0  0  0  0
    4.0820   -3.1356    0.0000 C   0  0  0  0  0  0  0  0  0  0  0  0
    5.3253   -2.2964    0.0000 C   0  0  0  0  0  0  0  0  0  0  0  0
    5.2202   -0.8001    0.0000 C   0  0  0  0  0  0  0  0  0  0  0  0
    3.8718   -0.1429    0.0000 C   0  0  0  0  0  0  0  0  0  0  0  0
    1.1751    1.1714    0.0000 C   0  0  0  0  0  0  0  0  0  0  0  0
   -0.1733    1.8286    0.0000 C   0  0  0  0  0  0  0  0  0  0  0  0
   -0.2784    3.3249    0.0000 C   0  0  0  0  0  0  0  0  0  0  0  0
    0.9649    4.1640    0.0000 C   0  0  0  0  0  0  0  0  0  0  0  0
    2.3133    3.5069    0.0000 C   0  0  0  0  0  0  0  0  0  0  0  0
    2.4184    2.0105    0.0000 C   0  0  0  0  0  0  0  0  0  0  0  0
  1  2  1  0
  2  3  1  0
  3  4  1  0
  4  5  1  0
  5  6  2  0
  6  7  1  0
  7  8  2  0
  8  9  1  0
  9 10  2  0
  4 11  1  0
 11 12  2  0
 12 13  1  0
 13 14  2  0
 14 15  1  0
 15 16  2  0
  3 17  1  0
 17 18  1  0
 18 19  2  0
 19 20  1  0
 20 21  2  0
 21 22  1  0
 22 23  2  0
 17 24  1  0
 24 25  2  0
 25 26  1  0
 26 27  2  0
 27 28  1  0
 28 29  2  0
 10  5  1  0
 16 11  1  0
 23 18  1  0
 29 24  1  0
M  END
>  <linear_selectivity>  (861) 
54

>  <denticity>  (861) 
2

>  <ligand_class>  (861) 
diphosphine

$$$$
dppp_110C_hexane
     RDKit          2D

 29 32  0  0  0  0  0  0  0  0999 V2000
    1.4903   -3.3176    0.0000 C   0  0  0  0  0  0  0  0  0  0  0  0
    0.1419   -2.6604    0.0000 C   0  0  0  0  0  0  0  0  0  0  0  0
    0.0368   -1.1641    0.0000 C   0  0  0  0  0  0  0  0  0  0  0  0
   -1.3115   -0.5069    0.0000 P   0  0  0  0  0  0  0  0  0  0  0  0
   -1.4166    0.9894    0.0000 C   0  0  0  0  0  0  0  0  0  0  0  0
   -0.1733    1.8286    0.0000 C   0  0  0  0  0  0  0  0  0  0  0  0
   -0.2784    3.3249    0.0000 C   0  0  0  0  0  0  0  0  0  0  0  0
   -1.6267    3.9820    0.0000 C   0  0  0  0  0  0  0  0  0  0  0  0
   -2.8701    3.1429    0.0000 C   0  0  0  0  0  0  0  0  0  0  0  0
   -2.7650    1.6466    0.0000 C   0  0  0  0  0  0  0  0  0  0  0  0
   -2.5549   -1.3461    0.0000 C   0  0  0  0  0  0  0  0  0  0  0  0
   -3.9032   -0.6889    0.0000 C   0  0  0  0  0  0  0  0  0  0  0  0
   -5.1466   -1.5280    0.0000 C   0  0  0  0  0  0  0  0  0  0  0  0
   -5.0415   -3.0244    0.0000 C   0  0  0  0  0  0  0  0  0  0  0  0
   -3.6931   -3.6815    0.0000 C   0  0  0  0  0  0  0  0  0  0  0  0
   -2.4498   -2.8424    0.0000 C   0  0  0  0  0  0  0  0  0  0  0  0
    1.2801   -0.3249    0.0000 P   0  0  0  0  0  0  0  0  0  0  0  0
    2.6285   -0.9821    0.0000 C   0  0  0  0  0  0  0  0  0  0  0  0
    2.7336   -2.4784    0.0000 C   0  0  0  0  0  0  0  0  0  0  0  0
    4.0820   -3.1356    0.0000 C   0  0  0  0  0  0  0  0  0  0  0  0
    5.3253   -2.2964    0.0000 C   0  0  0  0  0  0  0  0  0  0  0  0
    5.2202   -0.8001    0.0000 C   0  0  0  0  0  0  0  0  0  0  0  0
    3.8718   -0.1429    0.0000 C   0  0  0  0  0  0  0  0  0  0  0  0
    1.1751    1.1714    0.0000 C   0  0  0  0  0  0  0  0  0  0  0  0
   -0.1733    1.8286    0.0000 C   0  0  0  0  0  0  0  0  0  0  0  0
   -0.2784    3.3249    0.0000 C   0  0  0  0  0  0  0  0  0  0  0  0
    0.9649    4.1640    0.0000 C   0  0  0  0  0  0  0  0  0  0  0  0
    2.3133    3.5069    0.0000 C   0  0  0  0  0  0  0  0  0  0  0  0
    2.4184    2.0105    0.0000 C   0  0  0  0  0  0  0  0  0  0  0  0
  1  2  1  0
  2  3  1  0
  3  4  1  0
  4  5  1  0
  5  6  2  0
  6  7  1  0
  7  8  2  0
  8  9  1  0
  9 10  2  0
  4 11  1  0
 11 12  2  0
 12 13  1  0
 13 14  2  0
 14 15  1  0
 15 16  2  0
  3 17  1  0
 17 18  1  0
 18 19  2  0
 19 20  1  0
 20 21  2  0
 21 22  1  0
 22 23  2  0
 17 24  1  0
 24 25  2  0
 25 26  1  0
 26 27  2  0
 27 28  1  0
 28 29  2  0
 10  5  1  0
 16 11  1  0
 23 18  1  0
 29 24  1  0
M  END
>  <linear_selectivity>  (862) 
58

>  <denticity>  (862) 
2

>  <ligand_class>  (862) 
diphosphine

$$$$
dppp_110C_benzene
     RDKit          2D

 29 32  0  0  0  0  0  0  0  0999 V2000
    1.4903   -3.3176    0.0000 C   0  0  0  0  0  0  0  0  0  0  0  0
    0.1419   -2.6604    0.0000 C   0  0  0  0  0  0  0  0  0  0  0  0
    0.0368   -1.1641    0.0000 C   0  0  0  0  0  0  0  0  0  0  0  0
   -1.3115   -0.5069    0.0000 P   0  0  0  0  0  0  0  0  0  0  0  0
   -1.4166    0.9894    0.0000 C   0  0  0  0  0  0  0  0  0  0  0  0
   -0.1733    1.8286    0.0000 C   0  0  0  0  0  0  0  0  0  0  0  0
   -0.2784    3.3249    0.0000 C   0  0  0  0  0  0  0  0  0  0  0  0
   -1.6267    3.9820    0.0000 C   0  0  0  0  0  0  0  0  0  0  0  0
   -2.8701    3.1429    0.0000 C   0  0  0  0  0  0  0  0  0  0  0  0
   -2.7650    1.6466    0.0000 C   0  0  0  0  0  0  0  0  0  0  0  0
   -2.5549   -1.3461    0.0000 C   0  0  0  0  0  0  0  0  0  0  0  0
   -3.9032   -0.6889    0.0000 C   0  0  0  0  0  0  0  0  0  0  0  0
   -5.1466   -1.5280    0.0000 C   0  0  0  0  0  0  0  0  0  0  0  0
   -5.0415   -3.0244    0.0000 C   0  0  0  0  0  0  0  0  0  0  0  0
   -3.6931   -3.6815    0.0000 C   0  0  0  0  0  0  0  0  0  0  0  0
   -2.4498   -2.8424    0.0000 C   0  0  0  0  0  0  0  0  0  0  0  0
    1.2801   -0.3249    0.0000 P   0  0  0  0  0  0  0  0  0  0  0  0
    2.6285   -0.9821    0.0000 C   0  0  0  0  0  0  0  0  0  0  0  0
    2.7336   -2.4784    0.0000 C   0  0  0  0  0  0  0  0  0  0  0  0
    4.0820   -3.1356    0.0000 C   0  0  0  0  0  0  0  0  0  0  0  0
    5.3253   -2.2964    0.0000 C   0  0  0  0  0  0  0  0  0  0  0  0
    5.2202   -0.8001    0.0000 C   0  0  0  0  0  0  0  0  0  0  0  0
    3.8718   -0.1429    0.0000 C   0  0  0  0  0  0  0  0  0  0  0  0
    1.1751    1.1714    0.0000 C   0  0  0  0  0  0  0  0  0  0  0  0
   -0.1733    1.8286    0.0000 C   0  0  0  0  0  0  0  0  0  0  0  0
   -0.2784    3.3249    0.0000 C   0  0  0  0  0  0  0  0  0  0  0  0
    0.9649    4.1640    0.0000 C   0  0  0  0  0  0  0  0  0  0  0  0
    2.3133    3.5069    0.0000 C   0  0  0  0  0  0  0  0  0  0  0  0
    2.4184    2.0105    0.0000 C   0  0  0  0  0  0  0  0  0  0  0  0
  1  2  1  0
  2  3  1  0
  3  4  1  0
  4  5  1  0
  5  6  2  0
  6  7  1  0
  7  8  2  0
  8  9  1  0
  9 10  2  0
  4 11  1  0
 11 12  2  0
 12 13  1  0
 13 14  2  0
 14 15  1  0
 15 16  2  0
  3 17  1  0
 17 18  1  0
 18 19  2  0
 19 20  1  0
 20 21  2  0
 21 22  1  0
 22 23  2  0
 17 24  1  0
 24 25  2  0
 25 26  1  0
 26 27  2  0
 27 28  1  0
 28 29  2  0
 10  5  1  0
 16 11  1  0
 23 18  1  0
 29 24  1  0
M  END
>  <linear_selectivity>  (863) 
56

>  <denticity>  (863) 
2

>  <ligand_class>  (863) 
diphosphine

$$$$
dppp_120C_toluene
     RDKit          2D

 29 32  0  0  0  0  0  0  0  0999 V2000
    1.4903   -3.3176    0.0000 C   0  0  0  0  0  0  0  0  0  0  0  0
    0.1419   -2.6604    0.0000 C   0  0  0  0  0  0  0  0  0  0  0  0
    0.0368   -1.1641    0.0000 C   0  0  0  0  0  0  0  0  0  0  0  0
   -1.3115   -0.5069    0.0000 P   0  0  0  0  0  0  0  0  0  0  0  0
   -1.4166    0.9894    0.0000 C   0  0  0  0  0  0  0  0  0  0  0  0
   -0.1733    1.8286    0.0000 C   0  0  0  0  0  0  0  0  0  0  0  0
   -0.2784    3.3249    0.0000 C   0  0  0  0  0  0  0  0  0  0  0  0
   -1.6267    3.9820    0.0000 C   0  0  0  0  0  0  0  0  0  0  0  0
   -2.8701    3.1429    0.0000 C   0  0  0  0  0  0  0  0  0  0  0  0
   -2.7650    1.6466    0.0000 C   0  0  0  0  0  0  0  0  0  0  0  0
   -2.5549   -1.3461    0.0000 C   0  0  0  0  0  0  0  0  0  0  0  0
   -3.9032   -0.6889    0.0000 C   0  0  0  0  0  0  0  0  0  0  0  0
   -5.1466   -1.5280    0.0000 C   0  0  0  0  0  0  0  0  0  0  0  0
   -5.0415   -3.0244    0.0000 C   0  0  0  0  0  0  0  0  0  0  0  0
   -3.6931   -3.6815    0.0000 C   0  0  0  0  0  0  0  0  0  0  0  0
   -2.4498   -2.8424    0.0000 C   0  0  0  0  0  0  0  0  0  0  0  0
    1.2801   -0.3249    0.0000 P   0  0  0  0  0  0  0  0  0  0  0  0
    2.6285   -0.9821    0.0000 C   0  0  0  0  0  0  0  0  0  0  0  0
    2.7336   -2.4784    0.0000 C   0  0  0  0  0  0  0  0  0  0  0  0
    4.0820   -3.1356    0.0000 C   0  0  0  0  0  0  0  0  0  0  0  0
    5.3253   -2.2964    0.0000 C   0  0  0  0  0  0  0  0  0  0  0  0
    5.2202   -0.8001    0.0000 C   0  0  0  0  0  0  0  0  0  0  0  0
    3.8718   -0.1429    0.0000 C   0  0  0  0  0  0  0  0  0  0  0  0
    1.1751    1.1714    0.0000 C   0  0  0  0  0  0  0  0  0  0  0  0
   -0.1733    1.8286    0.0000 C   0  0  0  0  0  0  0  0  0  0  0  0
   -0.2784    3.3249    0.0000 C   0  0  0  0  0  0  0  0  0  0  0  0
    0.9649    4.1640    0.0000 C   0  0  0  0  0  0  0  0  0  0  0  0
    2.3133    3.5069    0.0000 C   0  0  0  0  0  0  0  0  0  0  0  0
    2.4184    2.0105    0.0000 C   0  0  0  0  0  0  0  0  0  0  0  0
  1  2  1  0
  2  3  1  0
  3  4  1  0
  4  5  1  0
  5  6  2  0
  6  7  1  0
  7  8  2  0
  8  9  1  0
  9 10  2  0
  4 11  1  0
 11 12  2  0
 12 13  1  0
 13 14  2  0
 14 15  1  0
 15 16  2  0
  3 17  1  0
 17 18  1  0
 18 19  2  0
 19 20  1  0
 20 21  2  0
 21 22  1  0
 22 23  2  0
 17 24  1  0
 24 25  2  0
 25 26  1  0
 26 27  2  0
 27 28  1  0
 28 29  2  0
 10  5  1  0
 16 11  1  0
 23 18  1  0
 29 24  1  0
M  END
>  <linear_selectivity>  (864) 
54

>  <denticity>  (864) 
2

>  <ligand_class>  (864) 
diphosphine

$$$$
dppp_120C_THF
     RDKit          2D

 29 32  0  0  0  0  0  0  0  0999 V2000
    1.4903   -3.3176    0.0000 C   0  0  0  0  0  0  0  0  0  0  0  0
    0.1419   -2.6604    0.0000 C   0  0  0  0  0  0  0  0  0  0  0  0
    0.0368   -1.1641    0.0000 C   0  0  0  0  0  0  0  0  0  0  0  0
   -1.3115   -0.5069    0.0000 P   0  0  0  0  0  0  0  0  0  0  0  0
   -1.4166    0.9894    0.0000 C   0  0  0  0  0  0  0  0  0  0  0  0
   -0.1733    1.8286    0.0000 C   0  0  0  0  0  0  0  0  0  0  0  0
   -0.2784    3.3249    0.0000 C   0  0  0  0  0  0  0  0  0  0  0  0
   -1.6267    3.9820    0.0000 C   0  0  0  0  0  0  0  0  0  0  0  0
   -2.8701    3.1429    0.0000 C   0  0  0  0  0  0  0  0  0  0  0  0
   -2.7650    1.6466    0.0000 C   0  0  0  0  0  0  0  0  0  0  0  0
   -2.5549   -1.3461    0.0000 C   0  0  0  0  0  0  0  0  0  0  0  0
   -3.9032   -0.6889    0.0000 C   0  0  0  0  0  0  0  0  0  0  0  0
   -5.1466   -1.5280    0.0000 C   0  0  0  0  0  0  0  0  0  0  0  0
   -5.0415   -3.0244    0.0000 C   0  0  0  0  0  0  0  0  0  0  0  0
   -3.6931   -3.6815    0.0000 C   0  0  0  0  0  0  0  0  0  0  0  0
   -2.4498   -2.8424    0.0000 C   0  0  0  0  0  0  0  0  0  0  0  0
    1.2801   -0.3249    0.0000 P   0  0  0  0  0  0  0  0  0  0  0  0
    2.6285   -0.9821    0.0000 C   0  0  0  0  0  0  0  0  0  0  0  0
    2.7336   -2.4784    0.0000 C   0  0  0  0  0  0  0  0  0  0  0  0
    4.0820   -3.1356    0.0000 C   0  0  0  0  0  0  0  0  0  0  0  0
    5.3253   -2.2964    0.0000 C   0  0  0  0  0  0  0  0  0  0  0  0
    5.2202   -0.8001    0.0000 C   0  0  0  0  0  0  0  0  0  0  0  0
    3.8718   -0.1429    0.0000 C   0  0  0  0  0  0  0  0  0  0  0  0
    1.1751    1.1714    0.0000 C   0  0  0  0  0  0  0  0  0  0  0  0
   -0.1733    1.8286    0.0000 C   0  0  0  0  0  0  0  0  0  0  0  0
   -0.2784    3.3249    0.0000 C   0  0  0  0  0  0  0  0  0  0  0  0
    0.9649    4.1640    0.0000 C   0  0  0  0  0  0  0  0  0  0  0  0
    2.3133    3.5069    0.0000 C   0  0  0  0  0  0  0  0  0  0  0  0
    2.4184    2.0105    0.0000 C   0  0  0  0  0  0  0  0  0  0  0  0
  1  2  1  0
  2  3  1  0
  3  4  1  0
  4  5  1  0
  5  6  2  0
  6  7  1  0
  7  8  2  0
  8  9  1  0
  9 10  2  0
  4 11  1  0
 11 12  2  0
 12 13  1  0
 13 14  2  0
 14 15  1  0
 15 16  2  0
  3 17  1  0
 17 18  1  0
 18 19  2  0
 19 20  1  0
 20 21  2  0
 21 22  1  0
 22 23  2  0
 17 24  1  0
 24 25  2  0
 25 26  1  0
 26 27  2  0
 27 28  1  0
 28 29  2  0
 10  5  1  0
 16 11  1  0
 23 18  1  0
 29 24  1  0
M  END
>  <linear_selectivity>  (865) 
50

>  <denticity>  (865) 
2

>  <ligand_class>  (865) 
diphosphine

$$$$
dppp_120C_dioxane
     RDKit          2D

 29 32  0  0  0  0  0  0  0  0999 V2000
    1.4903   -3.3176    0.0000 C   0  0  0  0  0  0  0  0  0  0  0  0
    0.1419   -2.6604    0.0000 C   0  0  0  0  0  0  0  0  0  0  0  0
    0.0368   -1.1641    0.0000 C   0  0  0  0  0  0  0  0  0  0  0  0
   -1.3115   -0.5069    0.0000 P   0  0  0  0  0  0  0  0  0  0  0  0
   -1.4166    0.9894    0.0000 C   0  0  0  0  0  0  0  0  0  0  0  0
   -0.1733    1.8286    0.0000 C   0  0  0  0  0  0  0  0  0  0  0  0
   -0.2784    3.3249    0.0000 C   0  0  0  0  0  0  0  0  0  0  0  0
   -1.6267    3.9820    0.0000 C   0  0  0  0  0  0  0  0  0  0  0  0
   -2.8701    3.1429    0.0000 C   0  0  0  0  0  0  0  0  0  0  0  0
   -2.7650    1.6466    0.0000 C   0  0  0  0  0  0  0  0  0  0  0  0
   -2.5549   -1.3461    0.0000 C   0  0  0  0  0  0  0  0  0  0  0  0
   -3.9032   -0.6889    0.0000 C   0  0  0  0  0  0  0  0  0  0  0  0
   -5.1466   -1.5280    0.0000 C   0  0  0  0  0  0  0  0  0  0  0  0
   -5.0415   -3.0244    0.0000 C   0  0  0  0  0  0  0  0  0  0  0  0
   -3.6931   -3.6815    0.0000 C   0  0  0  0  0  0  0  0  0  0  0  0
   -2.4498   -2.8424    0.0000 C   0  0  0  0  0  0  0  0  0  0  0  0
    1.2801   -0.3249    0.0000 P   0  0  0  0  0  0  0  0  0  0  0  0
    2.6285   -0.9821    0.0000 C   0  0  0  0  0  0  0  0  0  0  0  0
    2.7336   -2.4784    0.0000 C   0  0  0  0  0  0  0  0  0  0  0  0
    4.0820   -3.1356    0.0000 C   0  0  0  0  0  0  0  0  0  0  0  0
    5.3253   -2.2964    0.0000 C   0  0  0  0  0  0  0  0  0  0  0  0
    5.2202   -0.8001    0.0000 C   0  0  0  0  0  0  0  0  0  0  0  0
    3.8718   -0.1429    0.0000 C   0  0  0  0  0  0  0  0  0  0  0  0
    1.1751    1.1714    0.0000 C   0  0  0  0  0  0  0  0  0  0  0  0
   -0.1733    1.8286    0.0000 C   0  0  0  0  0  0  0  0  0  0  0  0
   -0.2784    3.3249    0.0000 C   0  0  0  0  0  0  0  0  0  0  0  0
    0.9649    4.1640    0.0000 C   0  0  0  0  0  0  0  0  0  0  0  0
    2.3133    3.5069    0.0000 C   0  0  0  0  0  0  0  0  0  0  0  0
    2.4184    2.0105    0.0000 C   0  0  0  0  0  0  0  0  0  0  0  0
  1  2  1  0
  2  3  1  0
  3  4  1  0
  4  5  1  0
  5  6  2  0
  6  7  1  0
  7  8  2  0
  8  9  1  0
  9 10  2  0
  4 11  1  0
 11 12  2  0
 12 13  1  0
 13 14  2  0
 14 15  1  0
 15 16  2  0
  3 17  1  0
 17 18  1  0
 18 19  2  0
 19 20  1  0
 20 21  2  0
 21 22  1  0
 22 23  2  0
 17 24  1  0
 24 25  2  0
 25 26  1  0
 26 27  2  0
 27 28  1  0
 28 29  2  0
 10  5  1  0
 16 11  1  0
 23 18  1  0
 29 24  1  0
M  END
>  <linear_selectivity>  (866) 
52

>  <denticity>  (866) 
2

>  <ligand_class>  (866) 
diphosphine

$$$$
dppp_120C_hexane
     RDKit          2D

 29 32  0  0  0  0  0  0  0  0999 V2000
    1.4903   -3.3176    0.0000 C   0  0  0  0  0  0  0  0  0  0  0  0
    0.1419   -2.6604    0.0000 C   0  0  0  0  0  0  0  0  0  0  0  0
    0.0368   -1.1641    0.0000 C   0  0  0  0  0  0  0  0  0  0  0  0
   -1.3115   -0.5069    0.0000 P   0  0  0  0  0  0  0  0  0  0  0  0
   -1.4166    0.9894    0.0000 C   0  0  0  0  0  0  0  0  0  0  0  0
   -0.1733    1.8286    0.0000 C   0  0  0  0  0  0  0  0  0  0  0  0
   -0.2784    3.3249    0.0000 C   0  0  0  0  0  0  0  0  0  0  0  0
   -1.6267    3.9820    0.0000 C   0  0  0  0  0  0  0  0  0  0  0  0
   -2.8701    3.1429    0.0000 C   0  0  0  0  0  0  0  0  0  0  0  0
   -2.7650    1.6466    0.0000 C   0  0  0  0  0  0  0  0  0  0  0  0
   -2.5549   -1.3461    0.0000 C   0  0  0  0  0  0  0  0  0  0  0  0
   -3.9032   -0.6889    0.0000 C   0  0  0  0  0  0  0  0  0  0  0  0
   -5.1466   -1.5280    0.0000 C   0  0  0  0  0  0  0  0  0  0  0  0
   -5.0415   -3.0244    0.0000 C   0  0  0  0  0  0  0  0  0  0  0  0
   -3.6931   -3.6815    0.0000 C   0  0  0  0  0  0  0  0  0  0  0  0
   -2.4498   -2.8424    0.0000 C   0  0  0  0  0  0  0  0  0  0  0  0
    1.2801   -0.3249    0.0000 P   0  0  0  0  0  0  0  0  0  0  0  0
    2.6285   -0.9821    0.0000 C   0  0  0  0  0  0  0  0  0  0  0  0
    2.7336   -2.4784    0.0000 C   0  0  0  0  0  0  0  0  0  0  0  0
    4.0820   -3.1356    0.0000 C   0  0  0  0  0  0  0  0  0  0  0  0
    5.3253   -2.2964    0.0000 C   0  0  0  0  0  0  0  0  0  0  0  0
    5.2202   -0.8001    0.0000 C   0  0  0  0  0  0  0  0  0  0  0  0
    3.8718   -0.1429    0.0000 C   0  0  0  0  0  0  0  0  0  0  0  0
    1.1751    1.1714    0.0000 C   0  0  0  0  0  0  0  0  0  0  0  0
   -0.1733    1.8286    0.0000 C   0  0  0  0  0  0  0  0  0  0  0  0
   -0.2784    3.3249    0.0000 C   0  0  0  0  0  0  0  0  0  0  0  0
    0.9649    4.1640    0.0000 C   0  0  0  0  0  0  0  0  0  0  0  0
    2.3133    3.5069    0.0000 C   0  0  0  0  0  0  0  0  0  0  0  0
    2.4184    2.0105    0.0000 C   0  0  0  0  0  0  0  0  0  0  0  0
  1  2  1  0
  2  3  1  0
  3  4  1  0
  4  5  1  0
  5  6  2  0
  6  7  1  0
  7  8  2  0
  8  9  1  0
  9 10  2  0
  4 11  1  0
 11 12  2  0
 12 13  1  0
 13 14  2  0
 14 15  1  0
 15 16  2  0
  3 17  1  0
 17 18  1  0
 18 19  2  0
 19 20  1  0
 20 21  2  0
 21 22  1  0
 22 23  2  0
 17 24  1  0
 24 25  2  0
 25 26  1  0
 26 27  2  0
 27 28  1  0
 28 29  2  0
 10  5  1  0
 16 11  1  0
 23 18  1  0
 29 24  1  0
M  END
>  <linear_selectivity>  (867) 
57

>  <denticity>  (867) 
2

>  <ligand_class>  (867) 
diphosphine

$$$$
dppp_120C_xylene
     RDKit          2D

 29 32  0  0  0  0  0  0  0  0999 V2000
    1.4903   -3.3176    0.0000 C   0  0  0  0  0  0  0  0  0  0  0  0
    0.1419   -2.6604    0.0000 C   0  0  0  0  0  0  0  0  0  0  0  0
    0.0368   -1.1641    0.0000 C   0  0  0  0  0  0  0  0  0  0  0  0
   -1.3115   -0.5069    0.0000 P   0  0  0  0  0  0  0  0  0  0  0  0
   -1.4166    0.9894    0.0000 C   0  0  0  0  0  0  0  0  0  0  0  0
   -0.1733    1.8286    0.0000 C   0  0  0  0  0  0  0  0  0  0  0  0
   -0.2784    3.3249    0.0000 C   0  0  0  0  0  0  0  0  0  0  0  0
   -1.6267    3.9820    0.0000 C   0  0  0  0  0  0  0  0  0  0  0  0
   -2.8701    3.1429    0.0000 C   0  0  0  0  0  0  0  0  0  0  0  0
   -2.7650    1.6466    0.0000 C   0  0  0  0  0  0  0  0  0  0  0  0
   -2.5549   -1.3461    0.0000 C   0  0  0  0  0  0  0  0  0  0  0  0
   -3.9032   -0.6889    0.0000 C   0  0  0  0  0  0  0  0  0  0  0  0
   -5.1466   -1.5280    0.0000 C   0  0  0  0  0  0  0  0  0  0  0  0
   -5.0415   -3.0244    0.0000 C   0  0  0  0  0  0  0  0  0  0  0  0
   -3.6931   -3.6815    0.0000 C   0  0  0  0  0  0  0  0  0  0  0  0
   -2.4498   -2.8424    0.0000 C   0  0  0  0  0  0  0  0  0  0  0  0
    1.2801   -0.3249    0.0000 P   0  0  0  0  0  0  0  0  0  0  0  0
    2.6285   -0.9821    0.0000 C   0  0  0  0  0  0  0  0  0  0  0  0
    2.7336   -2.4784    0.0000 C   0  0  0  0  0  0  0  0  0  0  0  0
    4.0820   -3.1356    0.0000 C   0  0  0  0  0  0  0  0  0  0  0  0
    5.3253   -2.2964    0.0000 C   0  0  0  0  0  0  0  0  0  0  0  0
    5.2202   -0.8001    0.0000 C   0  0  0  0  0  0  0  0  0  0  0  0
    3.8718   -0.1429    0.0000 C   0  0  0  0  0  0  0  0  0  0  0  0
    1.1751    1.1714    0.0000 C   0  0  0  0  0  0  0  0  0  0  0  0
   -0.1733    1.8286    0.0000 C   0  0  0  0  0  0  0  0  0  0  0  0
   -0.2784    3.3249    0.0000 C   0  0  0  0  0  0  0  0  0  0  0  0
    0.9649    4.1640    0.0000 C   0  0  0  0  0  0  0  0  0  0  0  0
    2.3133    3.5069    0.0000 C   0  0  0  0  0  0  0  0  0  0  0  0
    2.4184    2.0105    0.0000 C   0  0  0  0  0  0  0  0  0  0  0  0
  1  2  1  0
  2  3  1  0
  3  4  1  0
  4  5  1  0
  5  6  2  0
  6  7  1  0
  7  8  2  0
  8  9  1  0
  9 10  2  0
  4 11  1  0
 11 12  2  0
 12 13  1  0
 13 14  2  0
 14 15  1  0
 15 16  2  0
  3 17  1  0
 17 18  1  0
 18 19  2  0
 19 20  1  0
 20 21  2  0
 21 22  1  0
 22 23  2  0
 17 24  1  0
 24 25  2  0
 25 26  1  0
 26 27  2  0
 27 28  1  0
 28 29  2  0
 10  5  1  0
 16 11  1  0
 23 18  1  0
 29 24  1  0
M  END
>  <linear_selectivity>  (868) 
56

>  <denticity>  (868) 
2

>  <ligand_class>  (868) 
diphosphine

$$$$
dppp_130C_toluene
     RDKit          2D

 29 32  0  0  0  0  0  0  0  0999 V2000
    1.4903   -3.3176    0.0000 C   0  0  0  0  0  0  0  0  0  0  0  0
    0.1419   -2.6604    0.0000 C   0  0  0  0  0  0  0  0  0  0  0  0
    0.0368   -1.1641    0.0000 C   0  0  0  0  0  0  0  0  0  0  0  0
   -1.3115   -0.5069    0.0000 P   0  0  0  0  0  0  0  0  0  0  0  0
   -1.4166    0.9894    0.0000 C   0  0  0  0  0  0  0  0  0  0  0  0
   -0.1733    1.8286    0.0000 C   0  0  0  0  0  0  0  0  0  0  0  0
   -0.2784    3.3249    0.0000 C   0  0  0  0  0  0  0  0  0  0  0  0
   -1.6267    3.9820    0.0000 C   0  0  0  0  0  0  0  0  0  0  0  0
   -2.8701    3.1429    0.0000 C   0  0  0  0  0  0  0  0  0  0  0  0
   -2.7650    1.6466    0.0000 C   0  0  0  0  0  0  0  0  0  0  0  0
   -2.5549   -1.3461    0.0000 C   0  0  0  0  0  0  0  0  0  0  0  0
   -3.9032   -0.6889    0.0000 C   0  0  0  0  0  0  0  0  0  0  0  0
   -5.1466   -1.5280    0.0000 C   0  0  0  0  0  0  0  0  0  0  0  0
   -5.0415   -3.0244    0.0000 C   0  0  0  0  0  0  0  0  0  0  0  0
   -3.6931   -3.6815    0.0000 C   0  0  0  0  0  0  0  0  0  0  0  0
   -2.4498   -2.8424    0.0000 C   0  0  0  0  0  0  0  0  0  0  0  0
    1.2801   -0.3249    0.0000 P   0  0  0  0  0  0  0  0  0  0  0  0
    2.6285   -0.9821    0.0000 C   0  0  0  0  0  0  0  0  0  0  0  0
    2.7336   -2.4784    0.0000 C   0  0  0  0  0  0  0  0  0  0  0  0
    4.0820   -3.1356    0.0000 C   0  0  0  0  0  0  0  0  0  0  0  0
    5.3253   -2.2964    0.0000 C   0  0  0  0  0  0  0  0  0  0  0  0
    5.2202   -0.8001    0.0000 C   0  0  0  0  0  0  0  0  0  0  0  0
    3.8718   -0.1429    0.0000 C   0  0  0  0  0  0  0  0  0  0  0  0
    1.1751    1.1714    0.0000 C   0  0  0  0  0  0  0  0  0  0  0  0
   -0.1733    1.8286    0.0000 C   0  0  0  0  0  0  0  0  0  0  0  0
   -0.2784    3.3249    0.0000 C   0  0  0  0  0  0  0  0  0  0  0  0
    0.9649    4.1640    0.0000 C   0  0  0  0  0  0  0  0  0  0  0  0
    2.3133    3.5069    0.0000 C   0  0  0  0  0  0  0  0  0  0  0  0
    2.4184    2.0105    0.0000 C   0  0  0  0  0  0  0  0  0  0  0  0
  1  2  1  0
  2  3  1  0
  3  4  1  0
  4  5  1  0
  5  6  2  0
  6  7  1  0
  7  8  2  0
  8  9  1  0
  9 10  2  0
  4 11  1  0
 11 12  2  0
 12 13  1  0
 13 14  2  0
 14 15  1  0
 15 16  2  0
  3 17  1  0
 17 18  1  0
 18 19  2  0
 19 20  1  0
 20 21  2  0
 21 22  1  0
 22 23  2  0
 17 24  1  0
 24 25  2  0
 25 26  1  0
 26 27  2  0
 27 28  1  0
 28 29  2  0
 10  5  1  0
 16 11  1  0
 23 18  1  0
 29 24  1  0
M  END
>  <linear_selectivity>  (869) 
52

>  <denticity>  (869) 
2

>  <ligand_class>  (869) 
diphosphine

$$$$
dppp_130C_THF
     RDKit          2D

 29 32  0  0  0  0  0  0  0  0999 V2000
    1.4903   -3.3176    0.0000 C   0  0  0  0  0  0  0  0  0  0  0  0
    0.1419   -2.6604    0.0000 C   0  0  0  0  0  0  0  0  0  0  0  0
    0.0368   -1.1641    0.0000 C   0  0  0  0  0  0  0  0  0  0  0  0
   -1.3115   -0.5069    0.0000 P   0  0  0  0  0  0  0  0  0  0  0  0
   -1.4166    0.9894    0.0000 C   0  0  0  0  0  0  0  0  0  0  0  0
   -0.1733    1.8286    0.0000 C   0  0  0  0  0  0  0  0  0  0  0  0
   -0.2784    3.3249    0.0000 C   0  0  0  0  0  0  0  0  0  0  0  0
   -1.6267    3.9820    0.0000 C   0  0  0  0  0  0  0  0  0  0  0  0
   -2.8701    3.1429    0.0000 C   0  0  0  0  0  0  0  0  0  0  0  0
   -2.7650    1.6466    0.0000 C   0  0  0  0  0  0  0  0  0  0  0  0
   -2.5549   -1.3461    0.0000 C   0  0  0  0  0  0  0  0  0  0  0  0
   -3.9032   -0.6889    0.0000 C   0  0  0  0  0  0  0  0  0  0  0  0
   -5.1466   -1.5280    0.0000 C   0  0  0  0  0  0  0  0  0  0  0  0
   -5.0415   -3.0244    0.0000 C   0  0  0  0  0  0  0  0  0  0  0  0
   -3.6931   -3.6815    0.0000 C   0  0  0  0  0  0  0  0  0  0  0  0
   -2.4498   -2.8424    0.0000 C   0  0  0  0  0  0  0  0  0  0  0  0
    1.2801   -0.3249    0.0000 P   0  0  0  0  0  0  0  0  0  0  0  0
    2.6285   -0.9821    0.0000 C   0  0  0  0  0  0  0  0  0  0  0  0
    2.7336   -2.4784    0.0000 C   0  0  0  0  0  0  0  0  0  0  0  0
    4.0820   -3.1356    0.0000 C   0  0  0  0  0  0  0  0  0  0  0  0
    5.3253   -2.2964    0.0000 C   0  0  0  0  0  0  0  0  0  0  0  0
    5.2202   -0.8001    0.0000 C   0  0  0  0  0  0  0  0  0  0  0  0
    3.8718   -0.1429    0.0000 C   0  0  0  0  0  0  0  0  0  0  0  0
    1.1751    1.1714    0.0000 C   0  0  0  0  0  0  0  0  0  0  0  0
   -0.1733    1.8286    0.0000 C   0  0  0  0  0  0  0  0  0  0  0  0
   -0.2784    3.3249    0.0000 C   0  0  0  0  0  0  0  0  0  0  0  0
    0.9649    4.1640    0.0000 C   0  0  0  0  0  0  0  0  0  0  0  0
    2.3133    3.5069    0.0000 C   0  0  0  0  0  0  0  0  0  0  0  0
    2.4184    2.0105    0.0000 C   0  0  0  0  0  0  0  0  0  0  0  0
  1  2  1  0
  2  3  1  0
  3  4  1  0
  4  5  1  0
  5  6  2  0
  6  7  1  0
  7  8  2  0
  8  9  1  0
  9 10  2  0
  4 11  1  0
 11 12  2  0
 12 13  1  0
 13 14  2  0
 14 15  1  0
 15 16  2  0
  3 17  1  0
 17 18  1  0
 18 19  2  0
 19 20  1  0
 20 21  2  0
 21 22  1  0
 22 23  2  0
 17 24  1  0
 24 25  2  0
 25 26  1  0
 26 27  2  0
 27 28  1  0
 28 29  2  0
 10  5  1  0
 16 11  1  0
 23 18  1  0
 29 24  1  0
M  END
>  <linear_selectivity>  (870) 
44

>  <denticity>  (870) 
2

>  <ligand_class>  (870) 
diphosphine

$$$$
dppp_130C_dioxane
     RDKit          2D

 29 32  0  0  0  0  0  0  0  0999 V2000
    1.4903   -3.3176    0.0000 C   0  0  0  0  0  0  0  0  0  0  0  0
    0.1419   -2.6604    0.0000 C   0  0  0  0  0  0  0  0  0  0  0  0
    0.0368   -1.1641    0.0000 C   0  0  0  0  0  0  0  0  0  0  0  0
   -1.3115   -0.5069    0.0000 P   0  0  0  0  0  0  0  0  0  0  0  0
   -1.4166    0.9894    0.0000 C   0  0  0  0  0  0  0  0  0  0  0  0
   -0.1733    1.8286    0.0000 C   0  0  0  0  0  0  0  0  0  0  0  0
   -0.2784    3.3249    0.0000 C   0  0  0  0  0  0  0  0  0  0  0  0
   -1.6267    3.9820    0.0000 C   0  0  0  0  0  0  0  0  0  0  0  0
   -2.8701    3.1429    0.0000 C   0  0  0  0  0  0  0  0  0  0  0  0
   -2.7650    1.6466    0.0000 C   0  0  0  0  0  0  0  0  0  0  0  0
   -2.5549   -1.3461    0.0000 C   0  0  0  0  0  0  0  0  0  0  0  0
   -3.9032   -0.6889    0.0000 C   0  0  0  0  0  0  0  0  0  0  0  0
   -5.1466   -1.5280    0.0000 C   0  0  0  0  0  0  0  0  0  0  0  0
   -5.0415   -3.0244    0.0000 C   0  0  0  0  0  0  0  0  0  0  0  0
   -3.6931   -3.6815    0.0000 C   0  0  0  0  0  0  0  0  0  0  0  0
   -2.4498   -2.8424    0.0000 C   0  0  0  0  0  0  0  0  0  0  0  0
    1.2801   -0.3249    0.0000 P   0  0  0  0  0  0  0  0  0  0  0  0
    2.6285   -0.9821    0.0000 C   0  0  0  0  0  0  0  0  0  0  0  0
    2.7336   -2.4784    0.0000 C   0  0  0  0  0  0  0  0  0  0  0  0
    4.0820   -3.1356    0.0000 C   0  0  0  0  0  0  0  0  0  0  0  0
    5.3253   -2.2964    0.0000 C   0  0  0  0  0  0  0  0  0  0  0  0
    5.2202   -0.8001    0.0000 C   0  0  0  0  0  0  0  0  0  0  0  0
    3.8718   -0.1429    0.0000 C   0  0  0  0  0  0  0  0  0  0  0  0
    1.1751    1.1714    0.0000 C   0  0  0  0  0  0  0  0  0  0  0  0
   -0.1733    1.8286    0.0000 C   0  0  0  0  0  0  0  0  0  0  0  0
   -0.2784    3.3249    0.0000 C   0  0  0  0  0  0  0  0  0  0  0  0
    0.9649    4.1640    0.0000 C   0  0  0  0  0  0  0  0  0  0  0  0
    2.3133    3.5069    0.0000 C   0  0  0  0  0  0  0  0  0  0  0  0
    2.4184    2.0105    0.0000 C   0  0  0  0  0  0  0  0  0  0  0  0
  1  2  1  0
  2  3  1  0
  3  4  1  0
  4  5  1  0
  5  6  2  0
  6  7  1  0
  7  8  2  0
  8  9  1  0
  9 10  2  0
  4 11  1  0
 11 12  2  0
 12 13  1  0
 13 14  2  0
 14 15  1  0
 15 16  2  0
  3 17  1  0
 17 18  1  0
 18 19  2  0
 19 20  1  0
 20 21  2  0
 21 22  1  0
 22 23  2  0
 17 24  1  0
 24 25  2  0
 25 26  1  0
 26 27  2  0
 27 28  1  0
 28 29  2  0
 10  5  1  0
 16 11  1  0
 23 18  1  0
 29 24  1  0
M  END
>  <linear_selectivity>  (871) 
50

>  <denticity>  (871) 
2

>  <ligand_class>  (871) 
diphosphine

$$$$
dppp_130C_hexane
     RDKit          2D

 29 32  0  0  0  0  0  0  0  0999 V2000
    1.4903   -3.3176    0.0000 C   0  0  0  0  0  0  0  0  0  0  0  0
    0.1419   -2.6604    0.0000 C   0  0  0  0  0  0  0  0  0  0  0  0
    0.0368   -1.1641    0.0000 C   0  0  0  0  0  0  0  0  0  0  0  0
   -1.3115   -0.5069    0.0000 P   0  0  0  0  0  0  0  0  0  0  0  0
   -1.4166    0.9894    0.0000 C   0  0  0  0  0  0  0  0  0  0  0  0
   -0.1733    1.8286    0.0000 C   0  0  0  0  0  0  0  0  0  0  0  0
   -0.2784    3.3249    0.0000 C   0  0  0  0  0  0  0  0  0  0  0  0
   -1.6267    3.9820    0.0000 C   0  0  0  0  0  0  0  0  0  0  0  0
   -2.8701    3.1429    0.0000 C   0  0  0  0  0  0  0  0  0  0  0  0
   -2.7650    1.6466    0.0000 C   0  0  0  0  0  0  0  0  0  0  0  0
   -2.5549   -1.3461    0.0000 C   0  0  0  0  0  0  0  0  0  0  0  0
   -3.9032   -0.6889    0.0000 C   0  0  0  0  0  0  0  0  0  0  0  0
   -5.1466   -1.5280    0.0000 C   0  0  0  0  0  0  0  0  0  0  0  0
   -5.0415   -3.0244    0.0000 C   0  0  0  0  0  0  0  0  0  0  0  0
   -3.6931   -3.6815    0.0000 C   0  0  0  0  0  0  0  0  0  0  0  0
   -2.4498   -2.8424    0.0000 C   0  0  0  0  0  0  0  0  0  0  0  0
    1.2801   -0.3249    0.0000 P   0  0  0  0  0  0  0  0  0  0  0  0
    2.6285   -0.9821    0.0000 C   0  0  0  0  0  0  0  0  0  0  0  0
    2.7336   -2.4784    0.0000 C   0  0  0  0  0  0  0  0  0  0  0  0
    4.0820   -3.1356    0.0000 C   0  0  0  0  0  0  0  0  0  0  0  0
    5.3253   -2.2964    0.0000 C   0  0  0  0  0  0  0  0  0  0  0  0
    5.2202   -0.8001    0.0000 C   0  0  0  0  0  0  0  0  0  0  0  0
    3.8718   -0.1429    0.0000 C   0  0  0  0  0  0  0  0  0  0  0  0
    1.1751    1.1714    0.0000 C   0  0  0  0  0  0  0  0  0  0  0  0
   -0.1733    1.8286    0.0000 C   0  0  0  0  0  0  0  0  0  0  0  0
   -0.2784    3.3249    0.0000 C   0  0  0  0  0  0  0  0  0  0  0  0
    0.9649    4.1640    0.0000 C   0  0  0  0  0  0  0  0  0  0  0  0
    2.3133    3.5069    0.0000 C   0  0  0  0  0  0  0  0  0  0  0  0
    2.4184    2.0105    0.0000 C   0  0  0  0  0  0  0  0  0  0  0  0
  1  2  1  0
  2  3  1  0
  3  4  1  0
  4  5  1  0
  5  6  2  0
  6  7  1  0
  7  8  2  0
  8  9  1  0
  9 10  2  0
  4 11  1  0
 11 12  2  0
 12 13  1  0
 13 14  2  0
 14 15  1  0
 15 16  2  0
  3 17  1  0
 17 18  1  0
 18 19  2  0
 19 20  1  0
 20 21  2  0
 21 22  1  0
 22 23  2  0
 17 24  1  0
 24 25  2  0
 25 26  1  0
 26 27  2  0
 27 28  1  0
 28 29  2  0
 10  5  1  0
 16 11  1  0
 23 18  1  0
 29 24  1  0
M  END
>  <linear_selectivity>  (872) 
55

>  <denticity>  (872) 
2

>  <ligand_class>  (872) 
diphosphine

$$$$
dppp_130C_benzene
     RDKit          2D

 29 32  0  0  0  0  0  0  0  0999 V2000
    1.4903   -3.3176    0.0000 C   0  0  0  0  0  0  0  0  0  0  0  0
    0.1419   -2.6604    0.0000 C   0  0  0  0  0  0  0  0  0  0  0  0
    0.0368   -1.1641    0.0000 C   0  0  0  0  0  0  0  0  0  0  0  0
   -1.3115   -0.5069    0.0000 P   0  0  0  0  0  0  0  0  0  0  0  0
   -1.4166    0.9894    0.0000 C   0  0  0  0  0  0  0  0  0  0  0  0
   -0.1733    1.8286    0.0000 C   0  0  0  0  0  0  0  0  0  0  0  0
   -0.2784    3.3249    0.0000 C   0  0  0  0  0  0  0  0  0  0  0  0
   -1.6267    3.9820    0.0000 C   0  0  0  0  0  0  0  0  0  0  0  0
   -2.8701    3.1429    0.0000 C   0  0  0  0  0  0  0  0  0  0  0  0
   -2.7650    1.6466    0.0000 C   0  0  0  0  0  0  0  0  0  0  0  0
   -2.5549   -1.3461    0.0000 C   0  0  0  0  0  0  0  0  0  0  0  0
   -3.9032   -0.6889    0.0000 C   0  0  0  0  0  0  0  0  0  0  0  0
   -5.1466   -1.5280    0.0000 C   0  0  0  0  0  0  0  0  0  0  0  0
   -5.0415   -3.0244    0.0000 C   0  0  0  0  0  0  0  0  0  0  0  0
   -3.6931   -3.6815    0.0000 C   0  0  0  0  0  0  0  0  0  0  0  0
   -2.4498   -2.8424    0.0000 C   0  0  0  0  0  0  0  0  0  0  0  0
    1.2801   -0.3249    0.0000 P   0  0  0  0  0  0  0  0  0  0  0  0
    2.6285   -0.9821    0.0000 C   0  0  0  0  0  0  0  0  0  0  0  0
    2.7336   -2.4784    0.0000 C   0  0  0  0  0  0  0  0  0  0  0  0
    4.0820   -3.1356    0.0000 C   0  0  0  0  0  0  0  0  0  0  0  0
    5.3253   -2.2964    0.0000 C   0  0  0  0  0  0  0  0  0  0  0  0
    5.2202   -0.8001    0.0000 C   0  0  0  0  0  0  0  0  0  0  0  0
    3.8718   -0.1429    0.0000 C   0  0  0  0  0  0  0  0  0  0  0  0
    1.1751    1.1714    0.0000 C   0  0  0  0  0  0  0  0  0  0  0  0
   -0.1733    1.8286    0.0000 C   0  0  0  0  0  0  0  0  0  0  0  0
   -0.2784    3.3249    0.0000 C   0  0  0  0  0  0  0  0  0  0  0  0
    0.9649    4.1640    0.0000 C   0  0  0  0  0  0  0  0  0  0  0  0
    2.3133    3.5069    0.0000 C   0  0  0  0  0  0  0  0  0  0  0  0
    2.4184    2.0105    0.0000 C   0  0  0  0  0  0  0  0  0  0  0  0
  1  2  1  0
  2  3  1  0
  3  4  1  0
  4  5  1  0
  5  6  2  0
  6  7  1  0
  7  8  2  0
  8  9  1  0
  9 10  2  0
  4 11  1  0
 11 12  2  0
 12 13  1  0
 13 14  2  0
 14 15  1  0
 15 16  2  0
  3 17  1  0
 17 18  1  0
 18 19  2  0
 19 20  1  0
 20 21  2  0
 21 22  1  0
 22 23  2  0
 17 24  1  0
 24 25  2  0
 25 26  1  0
 26 27  2  0
 27 28  1  0
 28 29  2  0
 10  5  1  0
 16 11  1  0
 23 18  1  0
 29 24  1  0
M  END
>  <linear_selectivity>  (873) 
54

>  <denticity>  (873) 
2

>  <ligand_class>  (873) 
diphosphine

$$$$
dppp_130C_xylene
     RDKit          2D

 29 32  0  0  0  0  0  0  0  0999 V2000
    1.4903   -3.3176    0.0000 C   0  0  0  0  0  0  0  0  0  0  0  0
    0.1419   -2.6604    0.0000 C   0  0  0  0  0  0  0  0  0  0  0  0
    0.0368   -1.1641    0.0000 C   0  0  0  0  0  0  0  0  0  0  0  0
   -1.3115   -0.5069    0.0000 P   0  0  0  0  0  0  0  0  0  0  0  0
   -1.4166    0.9894    0.0000 C   0  0  0  0  0  0  0  0  0  0  0  0
   -0.1733    1.8286    0.0000 C   0  0  0  0  0  0  0  0  0  0  0  0
   -0.2784    3.3249    0.0000 C   0  0  0  0  0  0  0  0  0  0  0  0
   -1.6267    3.9820    0.0000 C   0  0  0  0  0  0  0  0  0  0  0  0
   -2.8701    3.1429    0.0000 C   0  0  0  0  0  0  0  0  0  0  0  0
   -2.7650    1.6466    0.0000 C   0  0  0  0  0  0  0  0  0  0  0  0
   -2.5549   -1.3461    0.0000 C   0  0  0  0  0  0  0  0  0  0  0  0
   -3.9032   -0.6889    0.0000 C   0  0  0  0  0  0  0  0  0  0  0  0
   -5.1466   -1.5280    0.0000 C   0  0  0  0  0  0  0  0  0  0  0  0
   -5.0415   -3.0244    0.0000 C   0  0  0  0  0  0  0  0  0  0  0  0
   -3.6931   -3.6815    0.0000 C   0  0  0  0  0  0  0  0  0  0  0  0
   -2.4498   -2.8424    0.0000 C   0  0  0  0  0  0  0  0  0  0  0  0
    1.2801   -0.3249    0.0000 P   0  0  0  0  0  0  0  0  0  0  0  0
    2.6285   -0.9821    0.0000 C   0  0  0  0  0  0  0  0  0  0  0  0
    2.7336   -2.4784    0.0000 C   0  0  0  0  0  0  0  0  0  0  0  0
    4.0820   -3.1356    0.0000 C   0  0  0  0  0  0  0  0  0  0  0  0
    5.3253   -2.2964    0.0000 C   0  0  0  0  0  0  0  0  0  0  0  0
    5.2202   -0.8001    0.0000 C   0  0  0  0  0  0  0  0  0  0  0  0
    3.8718   -0.1429    0.0000 C   0  0  0  0  0  0  0  0  0  0  0  0
    1.1751    1.1714    0.0000 C   0  0  0  0  0  0  0  0  0  0  0  0
   -0.1733    1.8286    0.0000 C   0  0  0  0  0  0  0  0  0  0  0  0
   -0.2784    3.3249    0.0000 C   0  0  0  0  0  0  0  0  0  0  0  0
    0.9649    4.1640    0.0000 C   0  0  0  0  0  0  0  0  0  0  0  0
    2.3133    3.5069    0.0000 C   0  0  0  0  0  0  0  0  0  0  0  0
    2.4184    2.0105    0.0000 C   0  0  0  0  0  0  0  0  0  0  0  0
  1  2  1  0
  2  3  1  0
  3  4  1  0
  4  5  1  0
  5  6  2  0
  6  7  1  0
  7  8  2  0
  8  9  1  0
  9 10  2  0
  4 11  1  0
 11 12  2  0
 12 13  1  0
 13 14  2  0
 14 15  1  0
 15 16  2  0
  3 17  1  0
 17 18  1  0
 18 19  2  0
 19 20  1  0
 20 21  2  0
 21 22  1  0
 22 23  2  0
 17 24  1  0
 24 25  2  0
 25 26  1  0
 26 27  2  0
 27 28  1  0
 28 29  2  0
 10  5  1  0
 16 11  1  0
 23 18  1  0
 29 24  1  0
M  END
>  <linear_selectivity>  (874) 
51

>  <denticity>  (874) 
2

>  <ligand_class>  (874) 
diphosphine

$$$$
dppb
     RDKit          2D

 30 33  0  0  0  0  0  0  0  0999 V2000
    2.2828   -4.3383    0.0000 C   0  0  0  0  0  0  0  0  0  0  0  0
    1.9343   -2.8794    0.0000 C   0  0  0  0  0  0  0  0  0  0  0  0
    0.4966   -2.4517    0.0000 C   0  0  0  0  0  0  0  0  0  0  0  0
    0.1481   -0.9928    0.0000 C   0  0  0  0  0  0  0  0  0  0  0  0
   -1.2896   -0.5651    0.0000 P   0  0  0  0  0  0  0  0  0  0  0  0
   -1.6381    0.8939    0.0000 C   0  0  0  0  0  0  0  0  0  0  0  0
   -0.5489    1.9252    0.0000 C   0  0  0  0  0  0  0  0  0  0  0  0
   -0.8974    3.3841    0.0000 C   0  0  0  0  0  0  0  0  0  0  0  0
   -2.3351    3.8118    0.0000 C   0  0  0  0  0  0  0  0  0  0  0  0
   -3.4244    2.7805    0.0000 C   0  0  0  0  0  0  0  0  0  0  0  0
   -3.0759    1.3216    0.0000 C   0  0  0  0  0  0  0  0  0  0  0  0
   -2.3789   -1.5964    0.0000 C   0  0  0  0  0  0  0  0  0  0  0  0
   -3.8166   -1.1687    0.0000 C   0  0  0  0  0  0  0  0  0  0  0  0
   -4.9059   -2.2000    0.0000 C   0  0  0  0  0  0  0  0  0  0  0  0
   -4.5574   -3.6589    0.0000 C   0  0  0  0  0  0  0  0  0  0  0  0
   -3.1196   -4.0866    0.0000 C   0  0  0  0  0  0  0  0  0  0  0  0
   -2.0304   -3.0553    0.0000 C   0  0  0  0  0  0  0  0  0  0  0  0
    1.2373    0.0385    0.0000 P   0  0  0  0  0  0  0  0  0  0  0  0
    2.6751   -0.3892    0.0000 C   0  0  0  0  0  0  0  0  0  0  0  0
    3.0236   -1.8481    0.0000 C   0  0  0  0  0  0  0  0  0  0  0  0
    4.4613   -2.2758    0.0000 C   0  0  0  0  0  0  0  0  0  0  0  0
    5.5506   -1.2445    0.0000 C   0  0  0  0  0  0  0  0  0  0  0  0
    5.2021    0.2145    0.0000 C   0  0  0  0  0  0  0  0  0  0  0  0
    3.7643    0.6421    0.0000 C   0  0  0  0  0  0  0  0  0  0  0  0
    0.8889    1.4975    0.0000 C   0  0  0  0  0  0  0  0  0  0  0  0
    1.9781    2.5288    0.0000 C   0  0  0  0  0  0  0  0  0  0  0  0
    1.6296    3.9877    0.0000 C   0  0  0  0  0  0  0  0  0  0  0  0
    0.1919    4.4154    0.0000 C   0  0  0  0  0  0  0  0  0  0  0  0
   -0.8974    3.3841    0.0000 C   0  0  0  0  0  0  0  0  0  0  0  0
   -0.5489    1.9252    0.0000 C   0  0  0  0  0  0  0  0  0  0  0  0
  1  2  1  0
  2  3  1  0
  3  4  1  0
  4  5  1  0
  5  6  1  0
  6  7  2  0
  7  8  1  0
  8  9  2  0
  9 10  1  0
 10 11  2  0
  5 12  1  0
 12 13  2  0
 13 14  1  0
 14 15  2  0
 15 16  1  0
 16 17  2  0
  4 18  1  0
 18 19  1  0
 19 20  2  0
 20 21  1  0
 21 22  2  0
 22 23  1  0
 23 24  2  0
 18 25  1  0
 25 26  2  0
 26 27  1  0
 27 28  2  0
 28 29  1  0
 29 30  2  0
 11  6  1  0
 17 12  1  0
 24 19  1  0
 30 25  1  0
M  END
>  <linear_selectivity>  (875) 
72

>  <denticity>  (875) 
2

>  <ligand_class>  (875) 
diphosphine

$$$$
dppb_70C_toluene
     RDKit          2D

 30 33  0  0  0  0  0  0  0  0999 V2000
    2.2828   -4.3383    0.0000 C   0  0  0  0  0  0  0  0  0  0  0  0
    1.9343   -2.8794    0.0000 C   0  0  0  0  0  0  0  0  0  0  0  0
    0.4966   -2.4517    0.0000 C   0  0  0  0  0  0  0  0  0  0  0  0
    0.1481   -0.9928    0.0000 C   0  0  0  0  0  0  0  0  0  0  0  0
   -1.2896   -0.5651    0.0000 P   0  0  0  0  0  0  0  0  0  0  0  0
   -1.6381    0.8939    0.0000 C   0  0  0  0  0  0  0  0  0  0  0  0
   -0.5489    1.9252    0.0000 C   0  0  0  0  0  0  0  0  0  0  0  0
   -0.8974    3.3841    0.0000 C   0  0  0  0  0  0  0  0  0  0  0  0
   -2.3351    3.8118    0.0000 C   0  0  0  0  0  0  0  0  0  0  0  0
   -3.4244    2.7805    0.0000 C   0  0  0  0  0  0  0  0  0  0  0  0
   -3.0759    1.3216    0.0000 C   0  0  0  0  0  0  0  0  0  0  0  0
   -2.3789   -1.5964    0.0000 C   0  0  0  0  0  0  0  0  0  0  0  0
   -3.8166   -1.1687    0.0000 C   0  0  0  0  0  0  0  0  0  0  0  0
   -4.9059   -2.2000    0.0000 C   0  0  0  0  0  0  0  0  0  0  0  0
   -4.5574   -3.6589    0.0000 C   0  0  0  0  0  0  0  0  0  0  0  0
   -3.1196   -4.0866    0.0000 C   0  0  0  0  0  0  0  0  0  0  0  0
   -2.0304   -3.0553    0.0000 C   0  0  0  0  0  0  0  0  0  0  0  0
    1.2373    0.0385    0.0000 P   0  0  0  0  0  0  0  0  0  0  0  0
    2.6751   -0.3892    0.0000 C   0  0  0  0  0  0  0  0  0  0  0  0
    3.0236   -1.8481    0.0000 C   0  0  0  0  0  0  0  0  0  0  0  0
    4.4613   -2.2758    0.0000 C   0  0  0  0  0  0  0  0  0  0  0  0
    5.5506   -1.2445    0.0000 C   0  0  0  0  0  0  0  0  0  0  0  0
    5.2021    0.2145    0.0000 C   0  0  0  0  0  0  0  0  0  0  0  0
    3.7643    0.6421    0.0000 C   0  0  0  0  0  0  0  0  0  0  0  0
    0.8889    1.4975    0.0000 C   0  0  0  0  0  0  0  0  0  0  0  0
    1.9781    2.5288    0.0000 C   0  0  0  0  0  0  0  0  0  0  0  0
    1.6296    3.9877    0.0000 C   0  0  0  0  0  0  0  0  0  0  0  0
    0.1919    4.4154    0.0000 C   0  0  0  0  0  0  0  0  0  0  0  0
   -0.8974    3.3841    0.0000 C   0  0  0  0  0  0  0  0  0  0  0  0
   -0.5489    1.9252    0.0000 C   0  0  0  0  0  0  0  0  0  0  0  0
  1  2  1  0
  2  3  1  0
  3  4  1  0
  4  5  1  0
  5  6  1  0
  6  7  2  0
  7  8  1  0
  8  9  2  0
  9 10  1  0
 10 11  2  0
  5 12  1  0
 12 13  2  0
 13 14  1  0
 14 15  2  0
 15 16  1  0
 16 17  2  0
  4 18  1  0
 18 19  1  0
 19 20  2  0
 20 21  1  0
 21 22  2  0
 22 23  1  0
 23 24  2  0
 18 25  1  0
 25 26  2  0
 26 27  1  0
 27 28  2  0
 28 29  1  0
 29 30  2  0
 11  6  1  0
 17 12  1  0
 24 19  1  0
 30 25  1  0
M  END
>  <linear_selectivity>  (876) 
76

>  <denticity>  (876) 
2

>  <ligand_class>  (876) 
diphosphine

$$$$
dppb_70C_THF
     RDKit          2D

 30 33  0  0  0  0  0  0  0  0999 V2000
    2.2828   -4.3383    0.0000 C   0  0  0  0  0  0  0  0  0  0  0  0
    1.9343   -2.8794    0.0000 C   0  0  0  0  0  0  0  0  0  0  0  0
    0.4966   -2.4517    0.0000 C   0  0  0  0  0  0  0  0  0  0  0  0
    0.1481   -0.9928    0.0000 C   0  0  0  0  0  0  0  0  0  0  0  0
   -1.2896   -0.5651    0.0000 P   0  0  0  0  0  0  0  0  0  0  0  0
   -1.6381    0.8939    0.0000 C   0  0  0  0  0  0  0  0  0  0  0  0
   -0.5489    1.9252    0.0000 C   0  0  0  0  0  0  0  0  0  0  0  0
   -0.8974    3.3841    0.0000 C   0  0  0  0  0  0  0  0  0  0  0  0
   -2.3351    3.8118    0.0000 C   0  0  0  0  0  0  0  0  0  0  0  0
   -3.4244    2.7805    0.0000 C   0  0  0  0  0  0  0  0  0  0  0  0
   -3.0759    1.3216    0.0000 C   0  0  0  0  0  0  0  0  0  0  0  0
   -2.3789   -1.5964    0.0000 C   0  0  0  0  0  0  0  0  0  0  0  0
   -3.8166   -1.1687    0.0000 C   0  0  0  0  0  0  0  0  0  0  0  0
   -4.9059   -2.2000    0.0000 C   0  0  0  0  0  0  0  0  0  0  0  0
   -4.5574   -3.6589    0.0000 C   0  0  0  0  0  0  0  0  0  0  0  0
   -3.1196   -4.0866    0.0000 C   0  0  0  0  0  0  0  0  0  0  0  0
   -2.0304   -3.0553    0.0000 C   0  0  0  0  0  0  0  0  0  0  0  0
    1.2373    0.0385    0.0000 P   0  0  0  0  0  0  0  0  0  0  0  0
    2.6751   -0.3892    0.0000 C   0  0  0  0  0  0  0  0  0  0  0  0
    3.0236   -1.8481    0.0000 C   0  0  0  0  0  0  0  0  0  0  0  0
    4.4613   -2.2758    0.0000 C   0  0  0  0  0  0  0  0  0  0  0  0
    5.5506   -1.2445    0.0000 C   0  0  0  0  0  0  0  0  0  0  0  0
    5.2021    0.2145    0.0000 C   0  0  0  0  0  0  0  0  0  0  0  0
    3.7643    0.6421    0.0000 C   0  0  0  0  0  0  0  0  0  0  0  0
    0.8889    1.4975    0.0000 C   0  0  0  0  0  0  0  0  0  0  0  0
    1.9781    2.5288    0.0000 C   0  0  0  0  0  0  0  0  0  0  0  0
    1.6296    3.9877    0.0000 C   0  0  0  0  0  0  0  0  0  0  0  0
    0.1919    4.4154    0.0000 C   0  0  0  0  0  0  0  0  0  0  0  0
   -0.8974    3.3841    0.0000 C   0  0  0  0  0  0  0  0  0  0  0  0
   -0.5489    1.9252    0.0000 C   0  0  0  0  0  0  0  0  0  0  0  0
  1  2  1  0
  2  3  1  0
  3  4  1  0
  4  5  1  0
  5  6  1  0
  6  7  2  0
  7  8  1  0
  8  9  2  0
  9 10  1  0
 10 11  2  0
  5 12  1  0
 12 13  2  0
 13 14  1  0
 14 15  2  0
 15 16  1  0
 16 17  2  0
  4 18  1  0
 18 19  1  0
 19 20  2  0
 20 21  1  0
 21 22  2  0
 22 23  1  0
 23 24  2  0
 18 25  1  0
 25 26  2  0
 26 27  1  0
 27 28  2  0
 28 29  1  0
 29 30  2  0
 11  6  1  0
 17 12  1  0
 24 19  1  0
 30 25  1  0
M  END
>  <linear_selectivity>  (877) 
76

>  <denticity>  (877) 
2

>  <ligand_class>  (877) 
diphosphine

$$$$
dppb_70C_dioxane
     RDKit          2D

 30 33  0  0  0  0  0  0  0  0999 V2000
    2.2828   -4.3383    0.0000 C   0  0  0  0  0  0  0  0  0  0  0  0
    1.9343   -2.8794    0.0000 C   0  0  0  0  0  0  0  0  0  0  0  0
    0.4966   -2.4517    0.0000 C   0  0  0  0  0  0  0  0  0  0  0  0
    0.1481   -0.9928    0.0000 C   0  0  0  0  0  0  0  0  0  0  0  0
   -1.2896   -0.5651    0.0000 P   0  0  0  0  0  0  0  0  0  0  0  0
   -1.6381    0.8939    0.0000 C   0  0  0  0  0  0  0  0  0  0  0  0
   -0.5489    1.9252    0.0000 C   0  0  0  0  0  0  0  0  0  0  0  0
   -0.8974    3.3841    0.0000 C   0  0  0  0  0  0  0  0  0  0  0  0
   -2.3351    3.8118    0.0000 C   0  0  0  0  0  0  0  0  0  0  0  0
   -3.4244    2.7805    0.0000 C   0  0  0  0  0  0  0  0  0  0  0  0
   -3.0759    1.3216    0.0000 C   0  0  0  0  0  0  0  0  0  0  0  0
   -2.3789   -1.5964    0.0000 C   0  0  0  0  0  0  0  0  0  0  0  0
   -3.8166   -1.1687    0.0000 C   0  0  0  0  0  0  0  0  0  0  0  0
   -4.9059   -2.2000    0.0000 C   0  0  0  0  0  0  0  0  0  0  0  0
   -4.5574   -3.6589    0.0000 C   0  0  0  0  0  0  0  0  0  0  0  0
   -3.1196   -4.0866    0.0000 C   0  0  0  0  0  0  0  0  0  0  0  0
   -2.0304   -3.0553    0.0000 C   0  0  0  0  0  0  0  0  0  0  0  0
    1.2373    0.0385    0.0000 P   0  0  0  0  0  0  0  0  0  0  0  0
    2.6751   -0.3892    0.0000 C   0  0  0  0  0  0  0  0  0  0  0  0
    3.0236   -1.8481    0.0000 C   0  0  0  0  0  0  0  0  0  0  0  0
    4.4613   -2.2758    0.0000 C   0  0  0  0  0  0  0  0  0  0  0  0
    5.5506   -1.2445    0.0000 C   0  0  0  0  0  0  0  0  0  0  0  0
    5.2021    0.2145    0.0000 C   0  0  0  0  0  0  0  0  0  0  0  0
    3.7643    0.6421    0.0000 C   0  0  0  0  0  0  0  0  0  0  0  0
    0.8889    1.4975    0.0000 C   0  0  0  0  0  0  0  0  0  0  0  0
    1.9781    2.5288    0.0000 C   0  0  0  0  0  0  0  0  0  0  0  0
    1.6296    3.9877    0.0000 C   0  0  0  0  0  0  0  0  0  0  0  0
    0.1919    4.4154    0.0000 C   0  0  0  0  0  0  0  0  0  0  0  0
   -0.8974    3.3841    0.0000 C   0  0  0  0  0  0  0  0  0  0  0  0
   -0.5489    1.9252    0.0000 C   0  0  0  0  0  0  0  0  0  0  0  0
  1  2  1  0
  2  3  1  0
  3  4  1  0
  4  5  1  0
  5  6  1  0
  6  7  2  0
  7  8  1  0
  8  9  2  0
  9 10  1  0
 10 11  2  0
  5 12  1  0
 12 13  2  0
 13 14  1  0
 14 15  2  0
 15 16  1  0
 16 17  2  0
  4 18  1  0
 18 19  1  0
 19 20  2  0
 20 21  1  0
 21 22  2  0
 22 23  1  0
 23 24  2  0
 18 25  1  0
 25 26  2  0
 26 27  1  0
 27 28  2  0
 28 29  1  0
 29 30  2  0
 11  6  1  0
 17 12  1  0
 24 19  1  0
 30 25  1  0
M  END
>  <linear_selectivity>  (878) 
76

>  <denticity>  (878) 
2

>  <ligand_class>  (878) 
diphosphine

$$$$
dppb_70C_benzene
     RDKit          2D

 30 33  0  0  0  0  0  0  0  0999 V2000
    2.2828   -4.3383    0.0000 C   0  0  0  0  0  0  0  0  0  0  0  0
    1.9343   -2.8794    0.0000 C   0  0  0  0  0  0  0  0  0  0  0  0
    0.4966   -2.4517    0.0000 C   0  0  0  0  0  0  0  0  0  0  0  0
    0.1481   -0.9928    0.0000 C   0  0  0  0  0  0  0  0  0  0  0  0
   -1.2896   -0.5651    0.0000 P   0  0  0  0  0  0  0  0  0  0  0  0
   -1.6381    0.8939    0.0000 C   0  0  0  0  0  0  0  0  0  0  0  0
   -0.5489    1.9252    0.0000 C   0  0  0  0  0  0  0  0  0  0  0  0
   -0.8974    3.3841    0.0000 C   0  0  0  0  0  0  0  0  0  0  0  0
   -2.3351    3.8118    0.0000 C   0  0  0  0  0  0  0  0  0  0  0  0
   -3.4244    2.7805    0.0000 C   0  0  0  0  0  0  0  0  0  0  0  0
   -3.0759    1.3216    0.0000 C   0  0  0  0  0  0  0  0  0  0  0  0
   -2.3789   -1.5964    0.0000 C   0  0  0  0  0  0  0  0  0  0  0  0
   -3.8166   -1.1687    0.0000 C   0  0  0  0  0  0  0  0  0  0  0  0
   -4.9059   -2.2000    0.0000 C   0  0  0  0  0  0  0  0  0  0  0  0
   -4.5574   -3.6589    0.0000 C   0  0  0  0  0  0  0  0  0  0  0  0
   -3.1196   -4.0866    0.0000 C   0  0  0  0  0  0  0  0  0  0  0  0
   -2.0304   -3.0553    0.0000 C   0  0  0  0  0  0  0  0  0  0  0  0
    1.2373    0.0385    0.0000 P   0  0  0  0  0  0  0  0  0  0  0  0
    2.6751   -0.3892    0.0000 C   0  0  0  0  0  0  0  0  0  0  0  0
    3.0236   -1.8481    0.0000 C   0  0  0  0  0  0  0  0  0  0  0  0
    4.4613   -2.2758    0.0000 C   0  0  0  0  0  0  0  0  0  0  0  0
    5.5506   -1.2445    0.0000 C   0  0  0  0  0  0  0  0  0  0  0  0
    5.2021    0.2145    0.0000 C   0  0  0  0  0  0  0  0  0  0  0  0
    3.7643    0.6421    0.0000 C   0  0  0  0  0  0  0  0  0  0  0  0
    0.8889    1.4975    0.0000 C   0  0  0  0  0  0  0  0  0  0  0  0
    1.9781    2.5288    0.0000 C   0  0  0  0  0  0  0  0  0  0  0  0
    1.6296    3.9877    0.0000 C   0  0  0  0  0  0  0  0  0  0  0  0
    0.1919    4.4154    0.0000 C   0  0  0  0  0  0  0  0  0  0  0  0
   -0.8974    3.3841    0.0000 C   0  0  0  0  0  0  0  0  0  0  0  0
   -0.5489    1.9252    0.0000 C   0  0  0  0  0  0  0  0  0  0  0  0
  1  2  1  0
  2  3  1  0
  3  4  1  0
  4  5  1  0
  5  6  1  0
  6  7  2  0
  7  8  1  0
  8  9  2  0
  9 10  1  0
 10 11  2  0
  5 12  1  0
 12 13  2  0
 13 14  1  0
 14 15  2  0
 15 16  1  0
 16 17  2  0
  4 18  1  0
 18 19  1  0
 19 20  2  0
 20 21  1  0
 21 22  2  0
 22 23  1  0
 23 24  2  0
 18 25  1  0
 25 26  2  0
 26 27  1  0
 27 28  2  0
 28 29  1  0
 29 30  2  0
 11  6  1  0
 17 12  1  0
 24 19  1  0
 30 25  1  0
M  END
>  <linear_selectivity>  (879) 
81

>  <denticity>  (879) 
2

>  <ligand_class>  (879) 
diphosphine

$$$$
dppb_70C_xylene
     RDKit          2D

 30 33  0  0  0  0  0  0  0  0999 V2000
    2.2828   -4.3383    0.0000 C   0  0  0  0  0  0  0  0  0  0  0  0
    1.9343   -2.8794    0.0000 C   0  0  0  0  0  0  0  0  0  0  0  0
    0.4966   -2.4517    0.0000 C   0  0  0  0  0  0  0  0  0  0  0  0
    0.1481   -0.9928    0.0000 C   0  0  0  0  0  0  0  0  0  0  0  0
   -1.2896   -0.5651    0.0000 P   0  0  0  0  0  0  0  0  0  0  0  0
   -1.6381    0.8939    0.0000 C   0  0  0  0  0  0  0  0  0  0  0  0
   -0.5489    1.9252    0.0000 C   0  0  0  0  0  0  0  0  0  0  0  0
   -0.8974    3.3841    0.0000 C   0  0  0  0  0  0  0  0  0  0  0  0
   -2.3351    3.8118    0.0000 C   0  0  0  0  0  0  0  0  0  0  0  0
   -3.4244    2.7805    0.0000 C   0  0  0  0  0  0  0  0  0  0  0  0
   -3.0759    1.3216    0.0000 C   0  0  0  0  0  0  0  0  0  0  0  0
   -2.3789   -1.5964    0.0000 C   0  0  0  0  0  0  0  0  0  0  0  0
   -3.8166   -1.1687    0.0000 C   0  0  0  0  0  0  0  0  0  0  0  0
   -4.9059   -2.2000    0.0000 C   0  0  0  0  0  0  0  0  0  0  0  0
   -4.5574   -3.6589    0.0000 C   0  0  0  0  0  0  0  0  0  0  0  0
   -3.1196   -4.0866    0.0000 C   0  0  0  0  0  0  0  0  0  0  0  0
   -2.0304   -3.0553    0.0000 C   0  0  0  0  0  0  0  0  0  0  0  0
    1.2373    0.0385    0.0000 P   0  0  0  0  0  0  0  0  0  0  0  0
    2.6751   -0.3892    0.0000 C   0  0  0  0  0  0  0  0  0  0  0  0
    3.0236   -1.8481    0.0000 C   0  0  0  0  0  0  0  0  0  0  0  0
    4.4613   -2.2758    0.0000 C   0  0  0  0  0  0  0  0  0  0  0  0
    5.5506   -1.2445    0.0000 C   0  0  0  0  0  0  0  0  0  0  0  0
    5.2021    0.2145    0.0000 C   0  0  0  0  0  0  0  0  0  0  0  0
    3.7643    0.6421    0.0000 C   0  0  0  0  0  0  0  0  0  0  0  0
    0.8889    1.4975    0.0000 C   0  0  0  0  0  0  0  0  0  0  0  0
    1.9781    2.5288    0.0000 C   0  0  0  0  0  0  0  0  0  0  0  0
    1.6296    3.9877    0.0000 C   0  0  0  0  0  0  0  0  0  0  0  0
    0.1919    4.4154    0.0000 C   0  0  0  0  0  0  0  0  0  0  0  0
   -0.8974    3.3841    0.0000 C   0  0  0  0  0  0  0  0  0  0  0  0
   -0.5489    1.9252    0.0000 C   0  0  0  0  0  0  0  0  0  0  0  0
  1  2  1  0
  2  3  1  0
  3  4  1  0
  4  5  1  0
  5  6  1  0
  6  7  2  0
  7  8  1  0
  8  9  2  0
  9 10  1  0
 10 11  2  0
  5 12  1  0
 12 13  2  0
 13 14  1  0
 14 15  2  0
 15 16  1  0
 16 17  2  0
  4 18  1  0
 18 19  1  0
 19 20  2  0
 20 21  1  0
 21 22  2  0
 22 23  1  0
 23 24  2  0
 18 25  1  0
 25 26  2  0
 26 27  1  0
 27 28  2  0
 28 29  1  0
 29 30  2  0
 11  6  1  0
 17 12  1  0
 24 19  1  0
 30 25  1  0
M  END
>  <linear_selectivity>  (880) 
83

>  <denticity>  (880) 
2

>  <ligand_class>  (880) 
diphosphine

$$$$
dppb_80C_THF
     RDKit          2D

 30 33  0  0  0  0  0  0  0  0999 V2000
    2.2828   -4.3383    0.0000 C   0  0  0  0  0  0  0  0  0  0  0  0
    1.9343   -2.8794    0.0000 C   0  0  0  0  0  0  0  0  0  0  0  0
    0.4966   -2.4517    0.0000 C   0  0  0  0  0  0  0  0  0  0  0  0
    0.1481   -0.9928    0.0000 C   0  0  0  0  0  0  0  0  0  0  0  0
   -1.2896   -0.5651    0.0000 P   0  0  0  0  0  0  0  0  0  0  0  0
   -1.6381    0.8939    0.0000 C   0  0  0  0  0  0  0  0  0  0  0  0
   -0.5489    1.9252    0.0000 C   0  0  0  0  0  0  0  0  0  0  0  0
   -0.8974    3.3841    0.0000 C   0  0  0  0  0  0  0  0  0  0  0  0
   -2.3351    3.8118    0.0000 C   0  0  0  0  0  0  0  0  0  0  0  0
   -3.4244    2.7805    0.0000 C   0  0  0  0  0  0  0  0  0  0  0  0
   -3.0759    1.3216    0.0000 C   0  0  0  0  0  0  0  0  0  0  0  0
   -2.3789   -1.5964    0.0000 C   0  0  0  0  0  0  0  0  0  0  0  0
   -3.8166   -1.1687    0.0000 C   0  0  0  0  0  0  0  0  0  0  0  0
   -4.9059   -2.2000    0.0000 C   0  0  0  0  0  0  0  0  0  0  0  0
   -4.5574   -3.6589    0.0000 C   0  0  0  0  0  0  0  0  0  0  0  0
   -3.1196   -4.0866    0.0000 C   0  0  0  0  0  0  0  0  0  0  0  0
   -2.0304   -3.0553    0.0000 C   0  0  0  0  0  0  0  0  0  0  0  0
    1.2373    0.0385    0.0000 P   0  0  0  0  0  0  0  0  0  0  0  0
    2.6751   -0.3892    0.0000 C   0  0  0  0  0  0  0  0  0  0  0  0
    3.0236   -1.8481    0.0000 C   0  0  0  0  0  0  0  0  0  0  0  0
    4.4613   -2.2758    0.0000 C   0  0  0  0  0  0  0  0  0  0  0  0
    5.5506   -1.2445    0.0000 C   0  0  0  0  0  0  0  0  0  0  0  0
    5.2021    0.2145    0.0000 C   0  0  0  0  0  0  0  0  0  0  0  0
    3.7643    0.6421    0.0000 C   0  0  0  0  0  0  0  0  0  0  0  0
    0.8889    1.4975    0.0000 C   0  0  0  0  0  0  0  0  0  0  0  0
    1.9781    2.5288    0.0000 C   0  0  0  0  0  0  0  0  0  0  0  0
    1.6296    3.9877    0.0000 C   0  0  0  0  0  0  0  0  0  0  0  0
    0.1919    4.4154    0.0000 C   0  0  0  0  0  0  0  0  0  0  0  0
   -0.8974    3.3841    0.0000 C   0  0  0  0  0  0  0  0  0  0  0  0
   -0.5489    1.9252    0.0000 C   0  0  0  0  0  0  0  0  0  0  0  0
  1  2  1  0
  2  3  1  0
  3  4  1  0
  4  5  1  0
  5  6  1  0
  6  7  2  0
  7  8  1  0
  8  9  2  0
  9 10  1  0
 10 11  2  0
  5 12  1  0
 12 13  2  0
 13 14  1  0
 14 15  2  0
 15 16  1  0
 16 17  2  0
  4 18  1  0
 18 19  1  0
 19 20  2  0
 20 21  1  0
 21 22  2  0
 22 23  1  0
 23 24  2  0
 18 25  1  0
 25 26  2  0
 26 27  1  0
 27 28  2  0
 28 29  1  0
 29 30  2  0
 11  6  1  0
 17 12  1  0
 24 19  1  0
 30 25  1  0
M  END
>  <linear_selectivity>  (881) 
72

>  <denticity>  (881) 
2

>  <ligand_class>  (881) 
diphosphine

$$$$
dppb_80C_hexane
     RDKit          2D

 30 33  0  0  0  0  0  0  0  0999 V2000
    2.2828   -4.3383    0.0000 C   0  0  0  0  0  0  0  0  0  0  0  0
    1.9343   -2.8794    0.0000 C   0  0  0  0  0  0  0  0  0  0  0  0
    0.4966   -2.4517    0.0000 C   0  0  0  0  0  0  0  0  0  0  0  0
    0.1481   -0.9928    0.0000 C   0  0  0  0  0  0  0  0  0  0  0  0
   -1.2896   -0.5651    0.0000 P   0  0  0  0  0  0  0  0  0  0  0  0
   -1.6381    0.8939    0.0000 C   0  0  0  0  0  0  0  0  0  0  0  0
   -0.5489    1.9252    0.0000 C   0  0  0  0  0  0  0  0  0  0  0  0
   -0.8974    3.3841    0.0000 C   0  0  0  0  0  0  0  0  0  0  0  0
   -2.3351    3.8118    0.0000 C   0  0  0  0  0  0  0  0  0  0  0  0
   -3.4244    2.7805    0.0000 C   0  0  0  0  0  0  0  0  0  0  0  0
   -3.0759    1.3216    0.0000 C   0  0  0  0  0  0  0  0  0  0  0  0
   -2.3789   -1.5964    0.0000 C   0  0  0  0  0  0  0  0  0  0  0  0
   -3.8166   -1.1687    0.0000 C   0  0  0  0  0  0  0  0  0  0  0  0
   -4.9059   -2.2000    0.0000 C   0  0  0  0  0  0  0  0  0  0  0  0
   -4.5574   -3.6589    0.0000 C   0  0  0  0  0  0  0  0  0  0  0  0
   -3.1196   -4.0866    0.0000 C   0  0  0  0  0  0  0  0  0  0  0  0
   -2.0304   -3.0553    0.0000 C   0  0  0  0  0  0  0  0  0  0  0  0
    1.2373    0.0385    0.0000 P   0  0  0  0  0  0  0  0  0  0  0  0
    2.6751   -0.3892    0.0000 C   0  0  0  0  0  0  0  0  0  0  0  0
    3.0236   -1.8481    0.0000 C   0  0  0  0  0  0  0  0  0  0  0  0
    4.4613   -2.2758    0.0000 C   0  0  0  0  0  0  0  0  0  0  0  0
    5.5506   -1.2445    0.0000 C   0  0  0  0  0  0  0  0  0  0  0  0
    5.2021    0.2145    0.0000 C   0  0  0  0  0  0  0  0  0  0  0  0
    3.7643    0.6421    0.0000 C   0  0  0  0  0  0  0  0  0  0  0  0
    0.8889    1.4975    0.0000 C   0  0  0  0  0  0  0  0  0  0  0  0
    1.9781    2.5288    0.0000 C   0  0  0  0  0  0  0  0  0  0  0  0
    1.6296    3.9877    0.0000 C   0  0  0  0  0  0  0  0  0  0  0  0
    0.1919    4.4154    0.0000 C   0  0  0  0  0  0  0  0  0  0  0  0
   -0.8974    3.3841    0.0000 C   0  0  0  0  0  0  0  0  0  0  0  0
   -0.5489    1.9252    0.0000 C   0  0  0  0  0  0  0  0  0  0  0  0
  1  2  1  0
  2  3  1  0
  3  4  1  0
  4  5  1  0
  5  6  1  0
  6  7  2  0
  7  8  1  0
  8  9  2  0
  9 10  1  0
 10 11  2  0
  5 12  1  0
 12 13  2  0
 13 14  1  0
 14 15  2  0
 15 16  1  0
 16 17  2  0
  4 18  1  0
 18 19  1  0
 19 20  2  0
 20 21  1  0
 21 22  2  0
 22 23  1  0
 23 24  2  0
 18 25  1  0
 25 26  2  0
 26 27  1  0
 27 28  2  0
 28 29  1  0
 29 30  2  0
 11  6  1  0
 17 12  1  0
 24 19  1  0
 30 25  1  0
M  END
>  <linear_selectivity>  (882) 
83

>  <denticity>  (882) 
2

>  <ligand_class>  (882) 
diphosphine

$$$$
dppb_90C_toluene
     RDKit          2D

 30 33  0  0  0  0  0  0  0  0999 V2000
    2.2828   -4.3383    0.0000 C   0  0  0  0  0  0  0  0  0  0  0  0
    1.9343   -2.8794    0.0000 C   0  0  0  0  0  0  0  0  0  0  0  0
    0.4966   -2.4517    0.0000 C   0  0  0  0  0  0  0  0  0  0  0  0
    0.1481   -0.9928    0.0000 C   0  0  0  0  0  0  0  0  0  0  0  0
   -1.2896   -0.5651    0.0000 P   0  0  0  0  0  0  0  0  0  0  0  0
   -1.6381    0.8939    0.0000 C   0  0  0  0  0  0  0  0  0  0  0  0
   -0.5489    1.9252    0.0000 C   0  0  0  0  0  0  0  0  0  0  0  0
   -0.8974    3.3841    0.0000 C   0  0  0  0  0  0  0  0  0  0  0  0
   -2.3351    3.8118    0.0000 C   0  0  0  0  0  0  0  0  0  0  0  0
   -3.4244    2.7805    0.0000 C   0  0  0  0  0  0  0  0  0  0  0  0
   -3.0759    1.3216    0.0000 C   0  0  0  0  0  0  0  0  0  0  0  0
   -2.3789   -1.5964    0.0000 C   0  0  0  0  0  0  0  0  0  0  0  0
   -3.8166   -1.1687    0.0000 C   0  0  0  0  0  0  0  0  0  0  0  0
   -4.9059   -2.2000    0.0000 C   0  0  0  0  0  0  0  0  0  0  0  0
   -4.5574   -3.6589    0.0000 C   0  0  0  0  0  0  0  0  0  0  0  0
   -3.1196   -4.0866    0.0000 C   0  0  0  0  0  0  0  0  0  0  0  0
   -2.0304   -3.0553    0.0000 C   0  0  0  0  0  0  0  0  0  0  0  0
    1.2373    0.0385    0.0000 P   0  0  0  0  0  0  0  0  0  0  0  0
    2.6751   -0.3892    0.0000 C   0  0  0  0  0  0  0  0  0  0  0  0
    3.0236   -1.8481    0.0000 C   0  0  0  0  0  0  0  0  0  0  0  0
    4.4613   -2.2758    0.0000 C   0  0  0  0  0  0  0  0  0  0  0  0
    5.5506   -1.2445    0.0000 C   0  0  0  0  0  0  0  0  0  0  0  0
    5.2021    0.2145    0.0000 C   0  0  0  0  0  0  0  0  0  0  0  0
    3.7643    0.6421    0.0000 C   0  0  0  0  0  0  0  0  0  0  0  0
    0.8889    1.4975    0.0000 C   0  0  0  0  0  0  0  0  0  0  0  0
    1.9781    2.5288    0.0000 C   0  0  0  0  0  0  0  0  0  0  0  0
    1.6296    3.9877    0.0000 C   0  0  0  0  0  0  0  0  0  0  0  0
    0.1919    4.4154    0.0000 C   0  0  0  0  0  0  0  0  0  0  0  0
   -0.8974    3.3841    0.0000 C   0  0  0  0  0  0  0  0  0  0  0  0
   -0.5489    1.9252    0.0000 C   0  0  0  0  0  0  0  0  0  0  0  0
  1  2  1  0
  2  3  1  0
  3  4  1  0
  4  5  1  0
  5  6  1  0
  6  7  2  0
  7  8  1  0
  8  9  2  0
  9 10  1  0
 10 11  2  0
  5 12  1  0
 12 13  2  0
 13 14  1  0
 14 15  2  0
 15 16  1  0
 16 17  2  0
  4 18  1  0
 18 19  1  0
 19 20  2  0
 20 21  1  0
 21 22  2  0
 22 23  1  0
 23 24  2  0
 18 25  1  0
 25 26  2  0
 26 27  1  0
 27 28  2  0
 28 29  1  0
 29 30  2  0
 11  6  1  0
 17 12  1  0
 24 19  1  0
 30 25  1  0
M  END
>  <linear_selectivity>  (883) 
74

>  <denticity>  (883) 
2

>  <ligand_class>  (883) 
diphosphine

$$$$
dppb_90C_hexane
     RDKit          2D

 30 33  0  0  0  0  0  0  0  0999 V2000
    2.2828   -4.3383    0.0000 C   0  0  0  0  0  0  0  0  0  0  0  0
    1.9343   -2.8794    0.0000 C   0  0  0  0  0  0  0  0  0  0  0  0
    0.4966   -2.4517    0.0000 C   0  0  0  0  0  0  0  0  0  0  0  0
    0.1481   -0.9928    0.0000 C   0  0  0  0  0  0  0  0  0  0  0  0
   -1.2896   -0.5651    0.0000 P   0  0  0  0  0  0  0  0  0  0  0  0
   -1.6381    0.8939    0.0000 C   0  0  0  0  0  0  0  0  0  0  0  0
   -0.5489    1.9252    0.0000 C   0  0  0  0  0  0  0  0  0  0  0  0
   -0.8974    3.3841    0.0000 C   0  0  0  0  0  0  0  0  0  0  0  0
   -2.3351    3.8118    0.0000 C   0  0  0  0  0  0  0  0  0  0  0  0
   -3.4244    2.7805    0.0000 C   0  0  0  0  0  0  0  0  0  0  0  0
   -3.0759    1.3216    0.0000 C   0  0  0  0  0  0  0  0  0  0  0  0
   -2.3789   -1.5964    0.0000 C   0  0  0  0  0  0  0  0  0  0  0  0
   -3.8166   -1.1687    0.0000 C   0  0  0  0  0  0  0  0  0  0  0  0
   -4.9059   -2.2000    0.0000 C   0  0  0  0  0  0  0  0  0  0  0  0
   -4.5574   -3.6589    0.0000 C   0  0  0  0  0  0  0  0  0  0  0  0
   -3.1196   -4.0866    0.0000 C   0  0  0  0  0  0  0  0  0  0  0  0
   -2.0304   -3.0553    0.0000 C   0  0  0  0  0  0  0  0  0  0  0  0
    1.2373    0.0385    0.0000 P   0  0  0  0  0  0  0  0  0  0  0  0
    2.6751   -0.3892    0.0000 C   0  0  0  0  0  0  0  0  0  0  0  0
    3.0236   -1.8481    0.0000 C   0  0  0  0  0  0  0  0  0  0  0  0
    4.4613   -2.2758    0.0000 C   0  0  0  0  0  0  0  0  0  0  0  0
    5.5506   -1.2445    0.0000 C   0  0  0  0  0  0  0  0  0  0  0  0
    5.2021    0.2145    0.0000 C   0  0  0  0  0  0  0  0  0  0  0  0
    3.7643    0.6421    0.0000 C   0  0  0  0  0  0  0  0  0  0  0  0
    0.8889    1.4975    0.0000 C   0  0  0  0  0  0  0  0  0  0  0  0
    1.9781    2.5288    0.0000 C   0  0  0  0  0  0  0  0  0  0  0  0
    1.6296    3.9877    0.0000 C   0  0  0  0  0  0  0  0  0  0  0  0
    0.1919    4.4154    0.0000 C   0  0  0  0  0  0  0  0  0  0  0  0
   -0.8974    3.3841    0.0000 C   0  0  0  0  0  0  0  0  0  0  0  0
   -0.5489    1.9252    0.0000 C   0  0  0  0  0  0  0  0  0  0  0  0
  1  2  1  0
  2  3  1  0
  3  4  1  0
  4  5  1  0
  5  6  1  0
  6  7  2  0
  7  8  1  0
  8  9  2  0
  9 10  1  0
 10 11  2  0
  5 12  1  0
 12 13  2  0
 13 14  1  0
 14 15  2  0
 15 16  1  0
 16 17  2  0
  4 18  1  0
 18 19  1  0
 19 20  2  0
 20 21  1  0
 21 22  2  0
 22 23  1  0
 23 24  2  0
 18 25  1  0
 25 26  2  0
 26 27  1  0
 27 28  2  0
 28 29  1  0
 29 30  2  0
 11  6  1  0
 17 12  1  0
 24 19  1  0
 30 25  1  0
M  END
>  <linear_selectivity>  (884) 
77

>  <denticity>  (884) 
2

>  <ligand_class>  (884) 
diphosphine

$$$$
dppb_90C_xylene
     RDKit          2D

 30 33  0  0  0  0  0  0  0  0999 V2000
    2.2828   -4.3383    0.0000 C   0  0  0  0  0  0  0  0  0  0  0  0
    1.9343   -2.8794    0.0000 C   0  0  0  0  0  0  0  0  0  0  0  0
    0.4966   -2.4517    0.0000 C   0  0  0  0  0  0  0  0  0  0  0  0
    0.1481   -0.9928    0.0000 C   0  0  0  0  0  0  0  0  0  0  0  0
   -1.2896   -0.5651    0.0000 P   0  0  0  0  0  0  0  0  0  0  0  0
   -1.6381    0.8939    0.0000 C   0  0  0  0  0  0  0  0  0  0  0  0
   -0.5489    1.9252    0.0000 C   0  0  0  0  0  0  0  0  0  0  0  0
   -0.8974    3.3841    0.0000 C   0  0  0  0  0  0  0  0  0  0  0  0
   -2.3351    3.8118    0.0000 C   0  0  0  0  0  0  0  0  0  0  0  0
   -3.4244    2.7805    0.0000 C   0  0  0  0  0  0  0  0  0  0  0  0
   -3.0759    1.3216    0.0000 C   0  0  0  0  0  0  0  0  0  0  0  0
   -2.3789   -1.5964    0.0000 C   0  0  0  0  0  0  0  0  0  0  0  0
   -3.8166   -1.1687    0.0000 C   0  0  0  0  0  0  0  0  0  0  0  0
   -4.9059   -2.2000    0.0000 C   0  0  0  0  0  0  0  0  0  0  0  0
   -4.5574   -3.6589    0.0000 C   0  0  0  0  0  0  0  0  0  0  0  0
   -3.1196   -4.0866    0.0000 C   0  0  0  0  0  0  0  0  0  0  0  0
   -2.0304   -3.0553    0.0000 C   0  0  0  0  0  0  0  0  0  0  0  0
    1.2373    0.0385    0.0000 P   0  0  0  0  0  0  0  0  0  0  0  0
    2.6751   -0.3892    0.0000 C   0  0  0  0  0  0  0  0  0  0  0  0
    3.0236   -1.8481    0.0000 C   0  0  0  0  0  0  0  0  0  0  0  0
    4.4613   -2.2758    0.0000 C   0  0  0  0  0  0  0  0  0  0  0  0
    5.5506   -1.2445    0.0000 C   0  0  0  0  0  0  0  0  0  0  0  0
    5.2021    0.2145    0.0000 C   0  0  0  0  0  0  0  0  0  0  0  0
    3.7643    0.6421    0.0000 C   0  0  0  0  0  0  0  0  0  0  0  0
    0.8889    1.4975    0.0000 C   0  0  0  0  0  0  0  0  0  0  0  0
    1.9781    2.5288    0.0000 C   0  0  0  0  0  0  0  0  0  0  0  0
    1.6296    3.9877    0.0000 C   0  0  0  0  0  0  0  0  0  0  0  0
    0.1919    4.4154    0.0000 C   0  0  0  0  0  0  0  0  0  0  0  0
   -0.8974    3.3841    0.0000 C   0  0  0  0  0  0  0  0  0  0  0  0
   -0.5489    1.9252    0.0000 C   0  0  0  0  0  0  0  0  0  0  0  0
  1  2  1  0
  2  3  1  0
  3  4  1  0
  4  5  1  0
  5  6  1  0
  6  7  2  0
  7  8  1  0
  8  9  2  0
  9 10  1  0
 10 11  2  0
  5 12  1  0
 12 13  2  0
 13 14  1  0
 14 15  2  0
 15 16  1  0
 16 17  2  0
  4 18  1  0
 18 19  1  0
 19 20  2  0
 20 21  1  0
 21 22  2  0
 22 23  1  0
 23 24  2  0
 18 25  1  0
 25 26  2  0
 26 27  1  0
 27 28  2  0
 28 29  1  0
 29 30  2  0
 11  6  1  0
 17 12  1  0
 24 19  1  0
 30 25  1  0
M  END
>  <linear_selectivity>  (885) 
78

>  <denticity>  (885) 
2

>  <ligand_class>  (885) 
diphosphine

$$$$
dppb_100C_dioxane
     RDKit          2D

 30 33  0  0  0  0  0  0  0  0999 V2000
    2.2828   -4.3383    0.0000 C   0  0  0  0  0  0  0  0  0  0  0  0
    1.9343   -2.8794    0.0000 C   0  0  0  0  0  0  0  0  0  0  0  0
    0.4966   -2.4517    0.0000 C   0  0  0  0  0  0  0  0  0  0  0  0
    0.1481   -0.9928    0.0000 C   0  0  0  0  0  0  0  0  0  0  0  0
   -1.2896   -0.5651    0.0000 P   0  0  0  0  0  0  0  0  0  0  0  0
   -1.6381    0.8939    0.0000 C   0  0  0  0  0  0  0  0  0  0  0  0
   -0.5489    1.9252    0.0000 C   0  0  0  0  0  0  0  0  0  0  0  0
   -0.8974    3.3841    0.0000 C   0  0  0  0  0  0  0  0  0  0  0  0
   -2.3351    3.8118    0.0000 C   0  0  0  0  0  0  0  0  0  0  0  0
   -3.4244    2.7805    0.0000 C   0  0  0  0  0  0  0  0  0  0  0  0
   -3.0759    1.3216    0.0000 C   0  0  0  0  0  0  0  0  0  0  0  0
   -2.3789   -1.5964    0.0000 C   0  0  0  0  0  0  0  0  0  0  0  0
   -3.8166   -1.1687    0.0000 C   0  0  0  0  0  0  0  0  0  0  0  0
   -4.9059   -2.2000    0.0000 C   0  0  0  0  0  0  0  0  0  0  0  0
   -4.5574   -3.6589    0.0000 C   0  0  0  0  0  0  0  0  0  0  0  0
   -3.1196   -4.0866    0.0000 C   0  0  0  0  0  0  0  0  0  0  0  0
   -2.0304   -3.0553    0.0000 C   0  0  0  0  0  0  0  0  0  0  0  0
    1.2373    0.0385    0.0000 P   0  0  0  0  0  0  0  0  0  0  0  0
    2.6751   -0.3892    0.0000 C   0  0  0  0  0  0  0  0  0  0  0  0
    3.0236   -1.8481    0.0000 C   0  0  0  0  0  0  0  0  0  0  0  0
    4.4613   -2.2758    0.0000 C   0  0  0  0  0  0  0  0  0  0  0  0
    5.5506   -1.2445    0.0000 C   0  0  0  0  0  0  0  0  0  0  0  0
    5.2021    0.2145    0.0000 C   0  0  0  0  0  0  0  0  0  0  0  0
    3.7643    0.6421    0.0000 C   0  0  0  0  0  0  0  0  0  0  0  0
    0.8889    1.4975    0.0000 C   0  0  0  0  0  0  0  0  0  0  0  0
    1.9781    2.5288    0.0000 C   0  0  0  0  0  0  0  0  0  0  0  0
    1.6296    3.9877    0.0000 C   0  0  0  0  0  0  0  0  0  0  0  0
    0.1919    4.4154    0.0000 C   0  0  0  0  0  0  0  0  0  0  0  0
   -0.8974    3.3841    0.0000 C   0  0  0  0  0  0  0  0  0  0  0  0
   -0.5489    1.9252    0.0000 C   0  0  0  0  0  0  0  0  0  0  0  0
  1  2  1  0
  2  3  1  0
  3  4  1  0
  4  5  1  0
  5  6  1  0
  6  7  2  0
  7  8  1  0
  8  9  2  0
  9 10  1  0
 10 11  2  0
  5 12  1  0
 12 13  2  0
 13 14  1  0
 14 15  2  0
 15 16  1  0
 16 17  2  0
  4 18  1  0
 18 19  1  0
 19 20  2  0
 20 21  1  0
 21 22  2  0
 22 23  1  0
 23 24  2  0
 18 25  1  0
 25 26  2  0
 26 27  1  0
 27 28  2  0
 28 29  1  0
 29 30  2  0
 11  6  1  0
 17 12  1  0
 24 19  1  0
 30 25  1  0
M  END
>  <linear_selectivity>  (886) 
72

>  <denticity>  (886) 
2

>  <ligand_class>  (886) 
diphosphine

$$$$
dppb_100C_xylene
     RDKit          2D

 30 33  0  0  0  0  0  0  0  0999 V2000
    2.2828   -4.3383    0.0000 C   0  0  0  0  0  0  0  0  0  0  0  0
    1.9343   -2.8794    0.0000 C   0  0  0  0  0  0  0  0  0  0  0  0
    0.4966   -2.4517    0.0000 C   0  0  0  0  0  0  0  0  0  0  0  0
    0.1481   -0.9928    0.0000 C   0  0  0  0  0  0  0  0  0  0  0  0
   -1.2896   -0.5651    0.0000 P   0  0  0  0  0  0  0  0  0  0  0  0
   -1.6381    0.8939    0.0000 C   0  0  0  0  0  0  0  0  0  0  0  0
   -0.5489    1.9252    0.0000 C   0  0  0  0  0  0  0  0  0  0  0  0
   -0.8974    3.3841    0.0000 C   0  0  0  0  0  0  0  0  0  0  0  0
   -2.3351    3.8118    0.0000 C   0  0  0  0  0  0  0  0  0  0  0  0
   -3.4244    2.7805    0.0000 C   0  0  0  0  0  0  0  0  0  0  0  0
   -3.0759    1.3216    0.0000 C   0  0  0  0  0  0  0  0  0  0  0  0
   -2.3789   -1.5964    0.0000 C   0  0  0  0  0  0  0  0  0  0  0  0
   -3.8166   -1.1687    0.0000 C   0  0  0  0  0  0  0  0  0  0  0  0
   -4.9059   -2.2000    0.0000 C   0  0  0  0  0  0  0  0  0  0  0  0
   -4.5574   -3.6589    0.0000 C   0  0  0  0  0  0  0  0  0  0  0  0
   -3.1196   -4.0866    0.0000 C   0  0  0  0  0  0  0  0  0  0  0  0
   -2.0304   -3.0553    0.0000 C   0  0  0  0  0  0  0  0  0  0  0  0
    1.2373    0.0385    0.0000 P   0  0  0  0  0  0  0  0  0  0  0  0
    2.6751   -0.3892    0.0000 C   0  0  0  0  0  0  0  0  0  0  0  0
    3.0236   -1.8481    0.0000 C   0  0  0  0  0  0  0  0  0  0  0  0
    4.4613   -2.2758    0.0000 C   0  0  0  0  0  0  0  0  0  0  0  0
    5.5506   -1.2445    0.0000 C   0  0  0  0  0  0  0  0  0  0  0  0
    5.2021    0.2145    0.0000 C   0  0  0  0  0  0  0  0  0  0  0  0
    3.7643    0.6421    0.0000 C   0  0  0  0  0  0  0  0  0  0  0  0
    0.8889    1.4975    0.0000 C   0  0  0  0  0  0  0  0  0  0  0  0
    1.9781    2.5288    0.0000 C   0  0  0  0  0  0  0  0  0  0  0  0
    1.6296    3.9877    0.0000 C   0  0  0  0  0  0  0  0  0  0  0  0
    0.1919    4.4154    0.0000 C   0  0  0  0  0  0  0  0  0  0  0  0
   -0.8974    3.3841    0.0000 C   0  0  0  0  0  0  0  0  0  0  0  0
   -0.5489    1.9252    0.0000 C   0  0  0  0  0  0  0  0  0  0  0  0
  1  2  1  0
  2  3  1  0
  3  4  1  0
  4  5  1  0
  5  6  1  0
  6  7  2  0
  7  8  1  0
  8  9  2  0
  9 10  1  0
 10 11  2  0
  5 12  1  0
 12 13  2  0
 13 14  1  0
 14 15  2  0
 15 16  1  0
 16 17  2  0
  4 18  1  0
 18 19  1  0
 19 20  2  0
 20 21  1  0
 21 22  2  0
 22 23  1  0
 23 24  2  0
 18 25  1  0
 25 26  2  0
 26 27  1  0
 27 28  2  0
 28 29  1  0
 29 30  2  0
 11  6  1  0
 17 12  1  0
 24 19  1  0
 30 25  1  0
M  END
>  <linear_selectivity>  (887) 
72

>  <denticity>  (887) 
2

>  <ligand_class>  (887) 
diphosphine

$$$$
dppb_110C_toluene
     RDKit          2D

 30 33  0  0  0  0  0  0  0  0999 V2000
    2.2828   -4.3383    0.0000 C   0  0  0  0  0  0  0  0  0  0  0  0
    1.9343   -2.8794    0.0000 C   0  0  0  0  0  0  0  0  0  0  0  0
    0.4966   -2.4517    0.0000 C   0  0  0  0  0  0  0  0  0  0  0  0
    0.1481   -0.9928    0.0000 C   0  0  0  0  0  0  0  0  0  0  0  0
   -1.2896   -0.5651    0.0000 P   0  0  0  0  0  0  0  0  0  0  0  0
   -1.6381    0.8939    0.0000 C   0  0  0  0  0  0  0  0  0  0  0  0
   -0.5489    1.9252    0.0000 C   0  0  0  0  0  0  0  0  0  0  0  0
   -0.8974    3.3841    0.0000 C   0  0  0  0  0  0  0  0  0  0  0  0
   -2.3351    3.8118    0.0000 C   0  0  0  0  0  0  0  0  0  0  0  0
   -3.4244    2.7805    0.0000 C   0  0  0  0  0  0  0  0  0  0  0  0
   -3.0759    1.3216    0.0000 C   0  0  0  0  0  0  0  0  0  0  0  0
   -2.3789   -1.5964    0.0000 C   0  0  0  0  0  0  0  0  0  0  0  0
   -3.8166   -1.1687    0.0000 C   0  0  0  0  0  0  0  0  0  0  0  0
   -4.9059   -2.2000    0.0000 C   0  0  0  0  0  0  0  0  0  0  0  0
   -4.5574   -3.6589    0.0000 C   0  0  0  0  0  0  0  0  0  0  0  0
   -3.1196   -4.0866    0.0000 C   0  0  0  0  0  0  0  0  0  0  0  0
   -2.0304   -3.0553    0.0000 C   0  0  0  0  0  0  0  0  0  0  0  0
    1.2373    0.0385    0.0000 P   0  0  0  0  0  0  0  0  0  0  0  0
    2.6751   -0.3892    0.0000 C   0  0  0  0  0  0  0  0  0  0  0  0
    3.0236   -1.8481    0.0000 C   0  0  0  0  0  0  0  0  0  0  0  0
    4.4613   -2.2758    0.0000 C   0  0  0  0  0  0  0  0  0  0  0  0
    5.5506   -1.2445    0.0000 C   0  0  0  0  0  0  0  0  0  0  0  0
    5.2021    0.2145    0.0000 C   0  0  0  0  0  0  0  0  0  0  0  0
    3.7643    0.6421    0.0000 C   0  0  0  0  0  0  0  0  0  0  0  0
    0.8889    1.4975    0.0000 C   0  0  0  0  0  0  0  0  0  0  0  0
    1.9781    2.5288    0.0000 C   0  0  0  0  0  0  0  0  0  0  0  0
    1.6296    3.9877    0.0000 C   0  0  0  0  0  0  0  0  0  0  0  0
    0.1919    4.4154    0.0000 C   0  0  0  0  0  0  0  0  0  0  0  0
   -0.8974    3.3841    0.0000 C   0  0  0  0  0  0  0  0  0  0  0  0
   -0.5489    1.9252    0.0000 C   0  0  0  0  0  0  0  0  0  0  0  0
  1  2  1  0
  2  3  1  0
  3  4  1  0
  4  5  1  0
  5  6  1  0
  6  7  2  0
  7  8  1  0
  8  9  2  0
  9 10  1  0
 10 11  2  0
  5 12  1  0
 12 13  2  0
 13 14  1  0
 14 15  2  0
 15 16  1  0
 16 17  2  0
  4 18  1  0
 18 19  1  0
 19 20  2  0
 20 21  1  0
 21 22  2  0
 22 23  1  0
 23 24  2  0
 18 25  1  0
 25 26  2  0
 26 27  1  0
 27 28  2  0
 28 29  1  0
 29 30  2  0
 11  6  1  0
 17 12  1  0
 24 19  1  0
 30 25  1  0
M  END
>  <linear_selectivity>  (888) 
69

>  <denticity>  (888) 
2

>  <ligand_class>  (888) 
diphosphine

$$$$
dppb_110C_THF
     RDKit          2D

 30 33  0  0  0  0  0  0  0  0999 V2000
    2.2828   -4.3383    0.0000 C   0  0  0  0  0  0  0  0  0  0  0  0
    1.9343   -2.8794    0.0000 C   0  0  0  0  0  0  0  0  0  0  0  0
    0.4966   -2.4517    0.0000 C   0  0  0  0  0  0  0  0  0  0  0  0
    0.1481   -0.9928    0.0000 C   0  0  0  0  0  0  0  0  0  0  0  0
   -1.2896   -0.5651    0.0000 P   0  0  0  0  0  0  0  0  0  0  0  0
   -1.6381    0.8939    0.0000 C   0  0  0  0  0  0  0  0  0  0  0  0
   -0.5489    1.9252    0.0000 C   0  0  0  0  0  0  0  0  0  0  0  0
   -0.8974    3.3841    0.0000 C   0  0  0  0  0  0  0  0  0  0  0  0
   -2.3351    3.8118    0.0000 C   0  0  0  0  0  0  0  0  0  0  0  0
   -3.4244    2.7805    0.0000 C   0  0  0  0  0  0  0  0  0  0  0  0
   -3.0759    1.3216    0.0000 C   0  0  0  0  0  0  0  0  0  0  0  0
   -2.3789   -1.5964    0.0000 C   0  0  0  0  0  0  0  0  0  0  0  0
   -3.8166   -1.1687    0.0000 C   0  0  0  0  0  0  0  0  0  0  0  0
   -4.9059   -2.2000    0.0000 C   0  0  0  0  0  0  0  0  0  0  0  0
   -4.5574   -3.6589    0.0000 C   0  0  0  0  0  0  0  0  0  0  0  0
   -3.1196   -4.0866    0.0000 C   0  0  0  0  0  0  0  0  0  0  0  0
   -2.0304   -3.0553    0.0000 C   0  0  0  0  0  0  0  0  0  0  0  0
    1.2373    0.0385    0.0000 P   0  0  0  0  0  0  0  0  0  0  0  0
    2.6751   -0.3892    0.0000 C   0  0  0  0  0  0  0  0  0  0  0  0
    3.0236   -1.8481    0.0000 C   0  0  0  0  0  0  0  0  0  0  0  0
    4.4613   -2.2758    0.0000 C   0  0  0  0  0  0  0  0  0  0  0  0
    5.5506   -1.2445    0.0000 C   0  0  0  0  0  0  0  0  0  0  0  0
    5.2021    0.2145    0.0000 C   0  0  0  0  0  0  0  0  0  0  0  0
    3.7643    0.6421    0.0000 C   0  0  0  0  0  0  0  0  0  0  0  0
    0.8889    1.4975    0.0000 C   0  0  0  0  0  0  0  0  0  0  0  0
    1.9781    2.5288    0.0000 C   0  0  0  0  0  0  0  0  0  0  0  0
    1.6296    3.9877    0.0000 C   0  0  0  0  0  0  0  0  0  0  0  0
    0.1919    4.4154    0.0000 C   0  0  0  0  0  0  0  0  0  0  0  0
   -0.8974    3.3841    0.0000 C   0  0  0  0  0  0  0  0  0  0  0  0
   -0.5489    1.9252    0.0000 C   0  0  0  0  0  0  0  0  0  0  0  0
  1  2  1  0
  2  3  1  0
  3  4  1  0
  4  5  1  0
  5  6  1  0
  6  7  2  0
  7  8  1  0
  8  9  2  0
  9 10  1  0
 10 11  2  0
  5 12  1  0
 12 13  2  0
 13 14  1  0
 14 15  2  0
 15 16  1  0
 16 17  2  0
  4 18  1  0
 18 19  1  0
 19 20  2  0
 20 21  1  0
 21 22  2  0
 22 23  1  0
 23 24  2  0
 18 25  1  0
 25 26  2  0
 26 27  1  0
 27 28  2  0
 28 29  1  0
 29 30  2  0
 11  6  1  0
 17 12  1  0
 24 19  1  0
 30 25  1  0
M  END
>  <linear_selectivity>  (889) 
66

>  <denticity>  (889) 
2

>  <ligand_class>  (889) 
diphosphine

$$$$
dppb_110C_hexane
     RDKit          2D

 30 33  0  0  0  0  0  0  0  0999 V2000
    2.2828   -4.3383    0.0000 C   0  0  0  0  0  0  0  0  0  0  0  0
    1.9343   -2.8794    0.0000 C   0  0  0  0  0  0  0  0  0  0  0  0
    0.4966   -2.4517    0.0000 C   0  0  0  0  0  0  0  0  0  0  0  0
    0.1481   -0.9928    0.0000 C   0  0  0  0  0  0  0  0  0  0  0  0
   -1.2896   -0.5651    0.0000 P   0  0  0  0  0  0  0  0  0  0  0  0
   -1.6381    0.8939    0.0000 C   0  0  0  0  0  0  0  0  0  0  0  0
   -0.5489    1.9252    0.0000 C   0  0  0  0  0  0  0  0  0  0  0  0
   -0.8974    3.3841    0.0000 C   0  0  0  0  0  0  0  0  0  0  0  0
   -2.3351    3.8118    0.0000 C   0  0  0  0  0  0  0  0  0  0  0  0
   -3.4244    2.7805    0.0000 C   0  0  0  0  0  0  0  0  0  0  0  0
   -3.0759    1.3216    0.0000 C   0  0  0  0  0  0  0  0  0  0  0  0
   -2.3789   -1.5964    0.0000 C   0  0  0  0  0  0  0  0  0  0  0  0
   -3.8166   -1.1687    0.0000 C   0  0  0  0  0  0  0  0  0  0  0  0
   -4.9059   -2.2000    0.0000 C   0  0  0  0  0  0  0  0  0  0  0  0
   -4.5574   -3.6589    0.0000 C   0  0  0  0  0  0  0  0  0  0  0  0
   -3.1196   -4.0866    0.0000 C   0  0  0  0  0  0  0  0  0  0  0  0
   -2.0304   -3.0553    0.0000 C   0  0  0  0  0  0  0  0  0  0  0  0
    1.2373    0.0385    0.0000 P   0  0  0  0  0  0  0  0  0  0  0  0
    2.6751   -0.3892    0.0000 C   0  0  0  0  0  0  0  0  0  0  0  0
    3.0236   -1.8481    0.0000 C   0  0  0  0  0  0  0  0  0  0  0  0
    4.4613   -2.2758    0.0000 C   0  0  0  0  0  0  0  0  0  0  0  0
    5.5506   -1.2445    0.0000 C   0  0  0  0  0  0  0  0  0  0  0  0
    5.2021    0.2145    0.0000 C   0  0  0  0  0  0  0  0  0  0  0  0
    3.7643    0.6421    0.0000 C   0  0  0  0  0  0  0  0  0  0  0  0
    0.8889    1.4975    0.0000 C   0  0  0  0  0  0  0  0  0  0  0  0
    1.9781    2.5288    0.0000 C   0  0  0  0  0  0  0  0  0  0  0  0
    1.6296    3.9877    0.0000 C   0  0  0  0  0  0  0  0  0  0  0  0
    0.1919    4.4154    0.0000 C   0  0  0  0  0  0  0  0  0  0  0  0
   -0.8974    3.3841    0.0000 C   0  0  0  0  0  0  0  0  0  0  0  0
   -0.5489    1.9252    0.0000 C   0  0  0  0  0  0  0  0  0  0  0  0
  1  2  1  0
  2  3  1  0
  3  4  1  0
  4  5  1  0
  5  6  1  0
  6  7  2  0
  7  8  1  0
  8  9  2  0
  9 10  1  0
 10 11  2  0
  5 12  1  0
 12 13  2  0
 13 14  1  0
 14 15  2  0
 15 16  1  0
 16 17  2  0
  4 18  1  0
 18 19  1  0
 19 20  2  0
 20 21  1  0
 21 22  2  0
 22 23  1  0
 23 24  2  0
 18 25  1  0
 25 26  2  0
 26 27  1  0
 27 28  2  0
 28 29  1  0
 29 30  2  0
 11  6  1  0
 17 12  1  0
 24 19  1  0
 30 25  1  0
M  END
>  <linear_selectivity>  (890) 
67

>  <denticity>  (890) 
2

>  <ligand_class>  (890) 
diphosphine

$$$$
dppb_110C_benzene
     RDKit          2D

 30 33  0  0  0  0  0  0  0  0999 V2000
    2.2828   -4.3383    0.0000 C   0  0  0  0  0  0  0  0  0  0  0  0
    1.9343   -2.8794    0.0000 C   0  0  0  0  0  0  0  0  0  0  0  0
    0.4966   -2.4517    0.0000 C   0  0  0  0  0  0  0  0  0  0  0  0
    0.1481   -0.9928    0.0000 C   0  0  0  0  0  0  0  0  0  0  0  0
   -1.2896   -0.5651    0.0000 P   0  0  0  0  0  0  0  0  0  0  0  0
   -1.6381    0.8939    0.0000 C   0  0  0  0  0  0  0  0  0  0  0  0
   -0.5489    1.9252    0.0000 C   0  0  0  0  0  0  0  0  0  0  0  0
   -0.8974    3.3841    0.0000 C   0  0  0  0  0  0  0  0  0  0  0  0
   -2.3351    3.8118    0.0000 C   0  0  0  0  0  0  0  0  0  0  0  0
   -3.4244    2.7805    0.0000 C   0  0  0  0  0  0  0  0  0  0  0  0
   -3.0759    1.3216    0.0000 C   0  0  0  0  0  0  0  0  0  0  0  0
   -2.3789   -1.5964    0.0000 C   0  0  0  0  0  0  0  0  0  0  0  0
   -3.8166   -1.1687    0.0000 C   0  0  0  0  0  0  0  0  0  0  0  0
   -4.9059   -2.2000    0.0000 C   0  0  0  0  0  0  0  0  0  0  0  0
   -4.5574   -3.6589    0.0000 C   0  0  0  0  0  0  0  0  0  0  0  0
   -3.1196   -4.0866    0.0000 C   0  0  0  0  0  0  0  0  0  0  0  0
   -2.0304   -3.0553    0.0000 C   0  0  0  0  0  0  0  0  0  0  0  0
    1.2373    0.0385    0.0000 P   0  0  0  0  0  0  0  0  0  0  0  0
    2.6751   -0.3892    0.0000 C   0  0  0  0  0  0  0  0  0  0  0  0
    3.0236   -1.8481    0.0000 C   0  0  0  0  0  0  0  0  0  0  0  0
    4.4613   -2.2758    0.0000 C   0  0  0  0  0  0  0  0  0  0  0  0
    5.5506   -1.2445    0.0000 C   0  0  0  0  0  0  0  0  0  0  0  0
    5.2021    0.2145    0.0000 C   0  0  0  0  0  0  0  0  0  0  0  0
    3.7643    0.6421    0.0000 C   0  0  0  0  0  0  0  0  0  0  0  0
    0.8889    1.4975    0.0000 C   0  0  0  0  0  0  0  0  0  0  0  0
    1.9781    2.5288    0.0000 C   0  0  0  0  0  0  0  0  0  0  0  0
    1.6296    3.9877    0.0000 C   0  0  0  0  0  0  0  0  0  0  0  0
    0.1919    4.4154    0.0000 C   0  0  0  0  0  0  0  0  0  0  0  0
   -0.8974    3.3841    0.0000 C   0  0  0  0  0  0  0  0  0  0  0  0
   -0.5489    1.9252    0.0000 C   0  0  0  0  0  0  0  0  0  0  0  0
  1  2  1  0
  2  3  1  0
  3  4  1  0
  4  5  1  0
  5  6  1  0
  6  7  2  0
  7  8  1  0
  8  9  2  0
  9 10  1  0
 10 11  2  0
  5 12  1  0
 12 13  2  0
 13 14  1  0
 14 15  2  0
 15 16  1  0
 16 17  2  0
  4 18  1  0
 18 19  1  0
 19 20  2  0
 20 21  1  0
 21 22  2  0
 22 23  1  0
 23 24  2  0
 18 25  1  0
 25 26  2  0
 26 27  1  0
 27 28  2  0
 28 29  1  0
 29 30  2  0
 11  6  1  0
 17 12  1  0
 24 19  1  0
 30 25  1  0
M  END
>  <linear_selectivity>  (891) 
72

>  <denticity>  (891) 
2

>  <ligand_class>  (891) 
diphosphine

$$$$
dppb_120C_dioxane
     RDKit          2D

 30 33  0  0  0  0  0  0  0  0999 V2000
    2.2828   -4.3383    0.0000 C   0  0  0  0  0  0  0  0  0  0  0  0
    1.9343   -2.8794    0.0000 C   0  0  0  0  0  0  0  0  0  0  0  0
    0.4966   -2.4517    0.0000 C   0  0  0  0  0  0  0  0  0  0  0  0
    0.1481   -0.9928    0.0000 C   0  0  0  0  0  0  0  0  0  0  0  0
   -1.2896   -0.5651    0.0000 P   0  0  0  0  0  0  0  0  0  0  0  0
   -1.6381    0.8939    0.0000 C   0  0  0  0  0  0  0  0  0  0  0  0
   -0.5489    1.9252    0.0000 C   0  0  0  0  0  0  0  0  0  0  0  0
   -0.8974    3.3841    0.0000 C   0  0  0  0  0  0  0  0  0  0  0  0
   -2.3351    3.8118    0.0000 C   0  0  0  0  0  0  0  0  0  0  0  0
   -3.4244    2.7805    0.0000 C   0  0  0  0  0  0  0  0  0  0  0  0
   -3.0759    1.3216    0.0000 C   0  0  0  0  0  0  0  0  0  0  0  0
   -2.3789   -1.5964    0.0000 C   0  0  0  0  0  0  0  0  0  0  0  0
   -3.8166   -1.1687    0.0000 C   0  0  0  0  0  0  0  0  0  0  0  0
   -4.9059   -2.2000    0.0000 C   0  0  0  0  0  0  0  0  0  0  0  0
   -4.5574   -3.6589    0.0000 C   0  0  0  0  0  0  0  0  0  0  0  0
   -3.1196   -4.0866    0.0000 C   0  0  0  0  0  0  0  0  0  0  0  0
   -2.0304   -3.0553    0.0000 C   0  0  0  0  0  0  0  0  0  0  0  0
    1.2373    0.0385    0.0000 P   0  0  0  0  0  0  0  0  0  0  0  0
    2.6751   -0.3892    0.0000 C   0  0  0  0  0  0  0  0  0  0  0  0
    3.0236   -1.8481    0.0000 C   0  0  0  0  0  0  0  0  0  0  0  0
    4.4613   -2.2758    0.0000 C   0  0  0  0  0  0  0  0  0  0  0  0
    5.5506   -1.2445    0.0000 C   0  0  0  0  0  0  0  0  0  0  0  0
    5.2021    0.2145    0.0000 C   0  0  0  0  0  0  0  0  0  0  0  0
    3.7643    0.6421    0.0000 C   0  0  0  0  0  0  0  0  0  0  0  0
    0.8889    1.4975    0.0000 C   0  0  0  0  0  0  0  0  0  0  0  0
    1.9781    2.5288    0.0000 C   0  0  0  0  0  0  0  0  0  0  0  0
    1.6296    3.9877    0.0000 C   0  0  0  0  0  0  0  0  0  0  0  0
    0.1919    4.4154    0.0000 C   0  0  0  0  0  0  0  0  0  0  0  0
   -0.8974    3.3841    0.0000 C   0  0  0  0  0  0  0  0  0  0  0  0
   -0.5489    1.9252    0.0000 C   0  0  0  0  0  0  0  0  0  0  0  0
  1  2  1  0
  2  3  1  0
  3  4  1  0
  4  5  1  0
  5  6  1  0
  6  7  2  0
  7  8  1  0
  8  9  2  0
  9 10  1  0
 10 11  2  0
  5 12  1  0
 12 13  2  0
 13 14  1  0
 14 15  2  0
 15 16  1  0
 16 17  2  0
  4 18  1  0
 18 19  1  0
 19 20  2  0
 20 21  1  0
 21 22  2  0
 22 23  1  0
 23 24  2  0
 18 25  1  0
 25 26  2  0
 26 27  1  0
 27 28  2  0
 28 29  1  0
 29 30  2  0
 11  6  1  0
 17 12  1  0
 24 19  1  0
 30 25  1  0
M  END
>  <linear_selectivity>  (892) 
61

>  <denticity>  (892) 
2

>  <ligand_class>  (892) 
diphosphine

$$$$
dppb_120C_hexane
     RDKit          2D

 30 33  0  0  0  0  0  0  0  0999 V2000
    2.2828   -4.3383    0.0000 C   0  0  0  0  0  0  0  0  0  0  0  0
    1.9343   -2.8794    0.0000 C   0  0  0  0  0  0  0  0  0  0  0  0
    0.4966   -2.4517    0.0000 C   0  0  0  0  0  0  0  0  0  0  0  0
    0.1481   -0.9928    0.0000 C   0  0  0  0  0  0  0  0  0  0  0  0
   -1.2896   -0.5651    0.0000 P   0  0  0  0  0  0  0  0  0  0  0  0
   -1.6381    0.8939    0.0000 C   0  0  0  0  0  0  0  0  0  0  0  0
   -0.5489    1.9252    0.0000 C   0  0  0  0  0  0  0  0  0  0  0  0
   -0.8974    3.3841    0.0000 C   0  0  0  0  0  0  0  0  0  0  0  0
   -2.3351    3.8118    0.0000 C   0  0  0  0  0  0  0  0  0  0  0  0
   -3.4244    2.7805    0.0000 C   0  0  0  0  0  0  0  0  0  0  0  0
   -3.0759    1.3216    0.0000 C   0  0  0  0  0  0  0  0  0  0  0  0
   -2.3789   -1.5964    0.0000 C   0  0  0  0  0  0  0  0  0  0  0  0
   -3.8166   -1.1687    0.0000 C   0  0  0  0  0  0  0  0  0  0  0  0
   -4.9059   -2.2000    0.0000 C   0  0  0  0  0  0  0  0  0  0  0  0
   -4.5574   -3.6589    0.0000 C   0  0  0  0  0  0  0  0  0  0  0  0
   -3.1196   -4.0866    0.0000 C   0  0  0  0  0  0  0  0  0  0  0  0
   -2.0304   -3.0553    0.0000 C   0  0  0  0  0  0  0  0  0  0  0  0
    1.2373    0.0385    0.0000 P   0  0  0  0  0  0  0  0  0  0  0  0
    2.6751   -0.3892    0.0000 C   0  0  0  0  0  0  0  0  0  0  0  0
    3.0236   -1.8481    0.0000 C   0  0  0  0  0  0  0  0  0  0  0  0
    4.4613   -2.2758    0.0000 C   0  0  0  0  0  0  0  0  0  0  0  0
    5.5506   -1.2445    0.0000 C   0  0  0  0  0  0  0  0  0  0  0  0
    5.2021    0.2145    0.0000 C   0  0  0  0  0  0  0  0  0  0  0  0
    3.7643    0.6421    0.0000 C   0  0  0  0  0  0  0  0  0  0  0  0
    0.8889    1.4975    0.0000 C   0  0  0  0  0  0  0  0  0  0  0  0
    1.9781    2.5288    0.0000 C   0  0  0  0  0  0  0  0  0  0  0  0
    1.6296    3.9877    0.0000 C   0  0  0  0  0  0  0  0  0  0  0  0
    0.1919    4.4154    0.0000 C   0  0  0  0  0  0  0  0  0  0  0  0
   -0.8974    3.3841    0.0000 C   0  0  0  0  0  0  0  0  0  0  0  0
   -0.5489    1.9252    0.0000 C   0  0  0  0  0  0  0  0  0  0  0  0
  1  2  1  0
  2  3  1  0
  3  4  1  0
  4  5  1  0
  5  6  1  0
  6  7  2  0
  7  8  1  0
  8  9  2  0
  9 10  1  0
 10 11  2  0
  5 12  1  0
 12 13  2  0
 13 14  1  0
 14 15  2  0
 15 16  1  0
 16 17  2  0
  4 18  1  0
 18 19  1  0
 19 20  2  0
 20 21  1  0
 21 22  2  0
 22 23  1  0
 23 24  2  0
 18 25  1  0
 25 26  2  0
 26 27  1  0
 27 28  2  0
 28 29  1  0
 29 30  2  0
 11  6  1  0
 17 12  1  0
 24 19  1  0
 30 25  1  0
M  END
>  <linear_selectivity>  (893) 
67

>  <denticity>  (893) 
2

>  <ligand_class>  (893) 
diphosphine

$$$$
dppb_120C_benzene
     RDKit          2D

 30 33  0  0  0  0  0  0  0  0999 V2000
    2.2828   -4.3383    0.0000 C   0  0  0  0  0  0  0  0  0  0  0  0
    1.9343   -2.8794    0.0000 C   0  0  0  0  0  0  0  0  0  0  0  0
    0.4966   -2.4517    0.0000 C   0  0  0  0  0  0  0  0  0  0  0  0
    0.1481   -0.9928    0.0000 C   0  0  0  0  0  0  0  0  0  0  0  0
   -1.2896   -0.5651    0.0000 P   0  0  0  0  0  0  0  0  0  0  0  0
   -1.6381    0.8939    0.0000 C   0  0  0  0  0  0  0  0  0  0  0  0
   -0.5489    1.9252    0.0000 C   0  0  0  0  0  0  0  0  0  0  0  0
   -0.8974    3.3841    0.0000 C   0  0  0  0  0  0  0  0  0  0  0  0
   -2.3351    3.8118    0.0000 C   0  0  0  0  0  0  0  0  0  0  0  0
   -3.4244    2.7805    0.0000 C   0  0  0  0  0  0  0  0  0  0  0  0
   -3.0759    1.3216    0.0000 C   0  0  0  0  0  0  0  0  0  0  0  0
   -2.3789   -1.5964    0.0000 C   0  0  0  0  0  0  0  0  0  0  0  0
   -3.8166   -1.1687    0.0000 C   0  0  0  0  0  0  0  0  0  0  0  0
   -4.9059   -2.2000    0.0000 C   0  0  0  0  0  0  0  0  0  0  0  0
   -4.5574   -3.6589    0.0000 C   0  0  0  0  0  0  0  0  0  0  0  0
   -3.1196   -4.0866    0.0000 C   0  0  0  0  0  0  0  0  0  0  0  0
   -2.0304   -3.0553    0.0000 C   0  0  0  0  0  0  0  0  0  0  0  0
    1.2373    0.0385    0.0000 P   0  0  0  0  0  0  0  0  0  0  0  0
    2.6751   -0.3892    0.0000 C   0  0  0  0  0  0  0  0  0  0  0  0
    3.0236   -1.8481    0.0000 C   0  0  0  0  0  0  0  0  0  0  0  0
    4.4613   -2.2758    0.0000 C   0  0  0  0  0  0  0  0  0  0  0  0
    5.5506   -1.2445    0.0000 C   0  0  0  0  0  0  0  0  0  0  0  0
    5.2021    0.2145    0.0000 C   0  0  0  0  0  0  0  0  0  0  0  0
    3.7643    0.6421    0.0000 C   0  0  0  0  0  0  0  0  0  0  0  0
    0.8889    1.4975    0.0000 C   0  0  0  0  0  0  0  0  0  0  0  0
    1.9781    2.5288    0.0000 C   0  0  0  0  0  0  0  0  0  0  0  0
    1.6296    3.9877    0.0000 C   0  0  0  0  0  0  0  0  0  0  0  0
    0.1919    4.4154    0.0000 C   0  0  0  0  0  0  0  0  0  0  0  0
   -0.8974    3.3841    0.0000 C   0  0  0  0  0  0  0  0  0  0  0  0
   -0.5489    1.9252    0.0000 C   0  0  0  0  0  0  0  0  0  0  0  0
  1  2  1  0
  2  3  1  0
  3  4  1  0
  4  5  1  0
  5  6  1  0
  6  7  2  0
  7  8  1  0
  8  9  2  0
  9 10  1  0
 10 11  2  0
  5 12  1  0
 12 13  2  0
 13 14  1  0
 14 15  2  0
 15 16  1  0
 16 17  2  0
  4 18  1  0
 18 19  1  0
 19 20  2  0
 20 21  1  0
 21 22  2  0
 22 23  1  0
 23 24  2  0
 18 25  1  0
 25 26  2  0
 26 27  1  0
 27 28  2  0
 28 29  1  0
 29 30  2  0
 11  6  1  0
 17 12  1  0
 24 19  1  0
 30 25  1  0
M  END
>  <linear_selectivity>  (894) 
68

>  <denticity>  (894) 
2

>  <ligand_class>  (894) 
diphosphine

$$$$
dppb_120C_xylene
     RDKit          2D

 30 33  0  0  0  0  0  0  0  0999 V2000
    2.2828   -4.3383    0.0000 C   0  0  0  0  0  0  0  0  0  0  0  0
    1.9343   -2.8794    0.0000 C   0  0  0  0  0  0  0  0  0  0  0  0
    0.4966   -2.4517    0.0000 C   0  0  0  0  0  0  0  0  0  0  0  0
    0.1481   -0.9928    0.0000 C   0  0  0  0  0  0  0  0  0  0  0  0
   -1.2896   -0.5651    0.0000 P   0  0  0  0  0  0  0  0  0  0  0  0
   -1.6381    0.8939    0.0000 C   0  0  0  0  0  0  0  0  0  0  0  0
   -0.5489    1.9252    0.0000 C   0  0  0  0  0  0  0  0  0  0  0  0
   -0.8974    3.3841    0.0000 C   0  0  0  0  0  0  0  0  0  0  0  0
   -2.3351    3.8118    0.0000 C   0  0  0  0  0  0  0  0  0  0  0  0
   -3.4244    2.7805    0.0000 C   0  0  0  0  0  0  0  0  0  0  0  0
   -3.0759    1.3216    0.0000 C   0  0  0  0  0  0  0  0  0  0  0  0
   -2.3789   -1.5964    0.0000 C   0  0  0  0  0  0  0  0  0  0  0  0
   -3.8166   -1.1687    0.0000 C   0  0  0  0  0  0  0  0  0  0  0  0
   -4.9059   -2.2000    0.0000 C   0  0  0  0  0  0  0  0  0  0  0  0
   -4.5574   -3.6589    0.0000 C   0  0  0  0  0  0  0  0  0  0  0  0
   -3.1196   -4.0866    0.0000 C   0  0  0  0  0  0  0  0  0  0  0  0
   -2.0304   -3.0553    0.0000 C   0  0  0  0  0  0  0  0  0  0  0  0
    1.2373    0.0385    0.0000 P   0  0  0  0  0  0  0  0  0  0  0  0
    2.6751   -0.3892    0.0000 C   0  0  0  0  0  0  0  0  0  0  0  0
    3.0236   -1.8481    0.0000 C   0  0  0  0  0  0  0  0  0  0  0  0
    4.4613   -2.2758    0.0000 C   0  0  0  0  0  0  0  0  0  0  0  0
    5.5506   -1.2445    0.0000 C   0  0  0  0  0  0  0  0  0  0  0  0
    5.2021    0.2145    0.0000 C   0  0  0  0  0  0  0  0  0  0  0  0
    3.7643    0.6421    0.0000 C   0  0  0  0  0  0  0  0  0  0  0  0
    0.8889    1.4975    0.0000 C   0  0  0  0  0  0  0  0  0  0  0  0
    1.9781    2.5288    0.0000 C   0  0  0  0  0  0  0  0  0  0  0  0
    1.6296    3.9877    0.0000 C   0  0  0  0  0  0  0  0  0  0  0  0
    0.1919    4.4154    0.0000 C   0  0  0  0  0  0  0  0  0  0  0  0
   -0.8974    3.3841    0.0000 C   0  0  0  0  0  0  0  0  0  0  0  0
   -0.5489    1.9252    0.0000 C   0  0  0  0  0  0  0  0  0  0  0  0
  1  2  1  0
  2  3  1  0
  3  4  1  0
  4  5  1  0
  5  6  1  0
  6  7  2  0
  7  8  1  0
  8  9  2  0
  9 10  1  0
 10 11  2  0
  5 12  1  0
 12 13  2  0
 13 14  1  0
 14 15  2  0
 15 16  1  0
 16 17  2  0
  4 18  1  0
 18 19  1  0
 19 20  2  0
 20 21  1  0
 21 22  2  0
 22 23  1  0
 23 24  2  0
 18 25  1  0
 25 26  2  0
 26 27  1  0
 27 28  2  0
 28 29  1  0
 29 30  2  0
 11  6  1  0
 17 12  1  0
 24 19  1  0
 30 25  1  0
M  END
>  <linear_selectivity>  (895) 
68

>  <denticity>  (895) 
2

>  <ligand_class>  (895) 
diphosphine

$$$$
dppb_130C_toluene
     RDKit          2D

 30 33  0  0  0  0  0  0  0  0999 V2000
    2.2828   -4.3383    0.0000 C   0  0  0  0  0  0  0  0  0  0  0  0
    1.9343   -2.8794    0.0000 C   0  0  0  0  0  0  0  0  0  0  0  0
    0.4966   -2.4517    0.0000 C   0  0  0  0  0  0  0  0  0  0  0  0
    0.1481   -0.9928    0.0000 C   0  0  0  0  0  0  0  0  0  0  0  0
   -1.2896   -0.5651    0.0000 P   0  0  0  0  0  0  0  0  0  0  0  0
   -1.6381    0.8939    0.0000 C   0  0  0  0  0  0  0  0  0  0  0  0
   -0.5489    1.9252    0.0000 C   0  0  0  0  0  0  0  0  0  0  0  0
   -0.8974    3.3841    0.0000 C   0  0  0  0  0  0  0  0  0  0  0  0
   -2.3351    3.8118    0.0000 C   0  0  0  0  0  0  0  0  0  0  0  0
   -3.4244    2.7805    0.0000 C   0  0  0  0  0  0  0  0  0  0  0  0
   -3.0759    1.3216    0.0000 C   0  0  0  0  0  0  0  0  0  0  0  0
   -2.3789   -1.5964    0.0000 C   0  0  0  0  0  0  0  0  0  0  0  0
   -3.8166   -1.1687    0.0000 C   0  0  0  0  0  0  0  0  0  0  0  0
   -4.9059   -2.2000    0.0000 C   0  0  0  0  0  0  0  0  0  0  0  0
   -4.5574   -3.6589    0.0000 C   0  0  0  0  0  0  0  0  0  0  0  0
   -3.1196   -4.0866    0.0000 C   0  0  0  0  0  0  0  0  0  0  0  0
   -2.0304   -3.0553    0.0000 C   0  0  0  0  0  0  0  0  0  0  0  0
    1.2373    0.0385    0.0000 P   0  0  0  0  0  0  0  0  0  0  0  0
    2.6751   -0.3892    0.0000 C   0  0  0  0  0  0  0  0  0  0  0  0
    3.0236   -1.8481    0.0000 C   0  0  0  0  0  0  0  0  0  0  0  0
    4.4613   -2.2758    0.0000 C   0  0  0  0  0  0  0  0  0  0  0  0
    5.5506   -1.2445    0.0000 C   0  0  0  0  0  0  0  0  0  0  0  0
    5.2021    0.2145    0.0000 C   0  0  0  0  0  0  0  0  0  0  0  0
    3.7643    0.6421    0.0000 C   0  0  0  0  0  0  0  0  0  0  0  0
    0.8889    1.4975    0.0000 C   0  0  0  0  0  0  0  0  0  0  0  0
    1.9781    2.5288    0.0000 C   0  0  0  0  0  0  0  0  0  0  0  0
    1.6296    3.9877    0.0000 C   0  0  0  0  0  0  0  0  0  0  0  0
    0.1919    4.4154    0.0000 C   0  0  0  0  0  0  0  0  0  0  0  0
   -0.8974    3.3841    0.0000 C   0  0  0  0  0  0  0  0  0  0  0  0
   -0.5489    1.9252    0.0000 C   0  0  0  0  0  0  0  0  0  0  0  0
  1  2  1  0
  2  3  1  0
  3  4  1  0
  4  5  1  0
  5  6  1  0
  6  7  2  0
  7  8  1  0
  8  9  2  0
  9 10  1  0
 10 11  2  0
  5 12  1  0
 12 13  2  0
 13 14  1  0
 14 15  2  0
 15 16  1  0
 16 17  2  0
  4 18  1  0
 18 19  1  0
 19 20  2  0
 20 21  1  0
 21 22  2  0
 22 23  1  0
 23 24  2  0
 18 25  1  0
 25 26  2  0
 26 27  1  0
 27 28  2  0
 28 29  1  0
 29 30  2  0
 11  6  1  0
 17 12  1  0
 24 19  1  0
 30 25  1  0
M  END
>  <linear_selectivity>  (896) 
63

>  <denticity>  (896) 
2

>  <ligand_class>  (896) 
diphosphine

$$$$
dppb_130C_THF
     RDKit          2D

 30 33  0  0  0  0  0  0  0  0999 V2000
    2.2828   -4.3383    0.0000 C   0  0  0  0  0  0  0  0  0  0  0  0
    1.9343   -2.8794    0.0000 C   0  0  0  0  0  0  0  0  0  0  0  0
    0.4966   -2.4517    0.0000 C   0  0  0  0  0  0  0  0  0  0  0  0
    0.1481   -0.9928    0.0000 C   0  0  0  0  0  0  0  0  0  0  0  0
   -1.2896   -0.5651    0.0000 P   0  0  0  0  0  0  0  0  0  0  0  0
   -1.6381    0.8939    0.0000 C   0  0  0  0  0  0  0  0  0  0  0  0
   -0.5489    1.9252    0.0000 C   0  0  0  0  0  0  0  0  0  0  0  0
   -0.8974    3.3841    0.0000 C   0  0  0  0  0  0  0  0  0  0  0  0
   -2.3351    3.8118    0.0000 C   0  0  0  0  0  0  0  0  0  0  0  0
   -3.4244    2.7805    0.0000 C   0  0  0  0  0  0  0  0  0  0  0  0
   -3.0759    1.3216    0.0000 C   0  0  0  0  0  0  0  0  0  0  0  0
   -2.3789   -1.5964    0.0000 C   0  0  0  0  0  0  0  0  0  0  0  0
   -3.8166   -1.1687    0.0000 C   0  0  0  0  0  0  0  0  0  0  0  0
   -4.9059   -2.2000    0.0000 C   0  0  0  0  0  0  0  0  0  0  0  0
   -4.5574   -3.6589    0.0000 C   0  0  0  0  0  0  0  0  0  0  0  0
   -3.1196   -4.0866    0.0000 C   0  0  0  0  0  0  0  0  0  0  0  0
   -2.0304   -3.0553    0.0000 C   0  0  0  0  0  0  0  0  0  0  0  0
    1.2373    0.0385    0.0000 P   0  0  0  0  0  0  0  0  0  0  0  0
    2.6751   -0.3892    0.0000 C   0  0  0  0  0  0  0  0  0  0  0  0
    3.0236   -1.8481    0.0000 C   0  0  0  0  0  0  0  0  0  0  0  0
    4.4613   -2.2758    0.0000 C   0  0  0  0  0  0  0  0  0  0  0  0
    5.5506   -1.2445    0.0000 C   0  0  0  0  0  0  0  0  0  0  0  0
    5.2021    0.2145    0.0000 C   0  0  0  0  0  0  0  0  0  0  0  0
    3.7643    0.6421    0.0000 C   0  0  0  0  0  0  0  0  0  0  0  0
    0.8889    1.4975    0.0000 C   0  0  0  0  0  0  0  0  0  0  0  0
    1.9781    2.5288    0.0000 C   0  0  0  0  0  0  0  0  0  0  0  0
    1.6296    3.9877    0.0000 C   0  0  0  0  0  0  0  0  0  0  0  0
    0.1919    4.4154    0.0000 C   0  0  0  0  0  0  0  0  0  0  0  0
   -0.8974    3.3841    0.0000 C   0  0  0  0  0  0  0  0  0  0  0  0
   -0.5489    1.9252    0.0000 C   0  0  0  0  0  0  0  0  0  0  0  0
  1  2  1  0
  2  3  1  0
  3  4  1  0
  4  5  1  0
  5  6  1  0
  6  7  2  0
  7  8  1  0
  8  9  2  0
  9 10  1  0
 10 11  2  0
  5 12  1  0
 12 13  2  0
 13 14  1  0
 14 15  2  0
 15 16  1  0
 16 17  2  0
  4 18  1  0
 18 19  1  0
 19 20  2  0
 20 21  1  0
 21 22  2  0
 22 23  1  0
 23 24  2  0
 18 25  1  0
 25 26  2  0
 26 27  1  0
 27 28  2  0
 28 29  1  0
 29 30  2  0
 11  6  1  0
 17 12  1  0
 24 19  1  0
 30 25  1  0
M  END
>  <linear_selectivity>  (897) 
57

>  <denticity>  (897) 
2

>  <ligand_class>  (897) 
diphosphine

$$$$
dppb_130C_dioxane
     RDKit          2D

 30 33  0  0  0  0  0  0  0  0999 V2000
    2.2828   -4.3383    0.0000 C   0  0  0  0  0  0  0  0  0  0  0  0
    1.9343   -2.8794    0.0000 C   0  0  0  0  0  0  0  0  0  0  0  0
    0.4966   -2.4517    0.0000 C   0  0  0  0  0  0  0  0  0  0  0  0
    0.1481   -0.9928    0.0000 C   0  0  0  0  0  0  0  0  0  0  0  0
   -1.2896   -0.5651    0.0000 P   0  0  0  0  0  0  0  0  0  0  0  0
   -1.6381    0.8939    0.0000 C   0  0  0  0  0  0  0  0  0  0  0  0
   -0.5489    1.9252    0.0000 C   0  0  0  0  0  0  0  0  0  0  0  0
   -0.8974    3.3841    0.0000 C   0  0  0  0  0  0  0  0  0  0  0  0
   -2.3351    3.8118    0.0000 C   0  0  0  0  0  0  0  0  0  0  0  0
   -3.4244    2.7805    0.0000 C   0  0  0  0  0  0  0  0  0  0  0  0
   -3.0759    1.3216    0.0000 C   0  0  0  0  0  0  0  0  0  0  0  0
   -2.3789   -1.5964    0.0000 C   0  0  0  0  0  0  0  0  0  0  0  0
   -3.8166   -1.1687    0.0000 C   0  0  0  0  0  0  0  0  0  0  0  0
   -4.9059   -2.2000    0.0000 C   0  0  0  0  0  0  0  0  0  0  0  0
   -4.5574   -3.6589    0.0000 C   0  0  0  0  0  0  0  0  0  0  0  0
   -3.1196   -4.0866    0.0000 C   0  0  0  0  0  0  0  0  0  0  0  0
   -2.0304   -3.0553    0.0000 C   0  0  0  0  0  0  0  0  0  0  0  0
    1.2373    0.0385    0.0000 P   0  0  0  0  0  0  0  0  0  0  0  0
    2.6751   -0.3892    0.0000 C   0  0  0  0  0  0  0  0  0  0  0  0
    3.0236   -1.8481    0.0000 C   0  0  0  0  0  0  0  0  0  0  0  0
    4.4613   -2.2758    0.0000 C   0  0  0  0  0  0  0  0  0  0  0  0
    5.5506   -1.2445    0.0000 C   0  0  0  0  0  0  0  0  0  0  0  0
    5.2021    0.2145    0.0000 C   0  0  0  0  0  0  0  0  0  0  0  0
    3.7643    0.6421    0.0000 C   0  0  0  0  0  0  0  0  0  0  0  0
    0.8889    1.4975    0.0000 C   0  0  0  0  0  0  0  0  0  0  0  0
    1.9781    2.5288    0.0000 C   0  0  0  0  0  0  0  0  0  0  0  0
    1.6296    3.9877    0.0000 C   0  0  0  0  0  0  0  0  0  0  0  0
    0.1919    4.4154    0.0000 C   0  0  0  0  0  0  0  0  0  0  0  0
   -0.8974    3.3841    0.0000 C   0  0  0  0  0  0  0  0  0  0  0  0
   -0.5489    1.9252    0.0000 C   0  0  0  0  0  0  0  0  0  0  0  0
  1  2  1  0
  2  3  1  0
  3  4  1  0
  4  5  1  0
  5  6  1  0
  6  7  2  0
  7  8  1  0
  8  9  2  0
  9 10  1  0
 10 11  2  0
  5 12  1  0
 12 13  2  0
 13 14  1  0
 14 15  2  0
 15 16  1  0
 16 17  2  0
  4 18  1  0
 18 19  1  0
 19 20  2  0
 20 21  1  0
 21 22  2  0
 22 23  1  0
 23 24  2  0
 18 25  1  0
 25 26  2  0
 26 27  1  0
 27 28  2  0
 28 29  1  0
 29 30  2  0
 11  6  1  0
 17 12  1  0
 24 19  1  0
 30 25  1  0
M  END
>  <linear_selectivity>  (898) 
62

>  <denticity>  (898) 
2

>  <ligand_class>  (898) 
diphosphine

$$$$
dppb_130C_hexane
     RDKit          2D

 30 33  0  0  0  0  0  0  0  0999 V2000
    2.2828   -4.3383    0.0000 C   0  0  0  0  0  0  0  0  0  0  0  0
    1.9343   -2.8794    0.0000 C   0  0  0  0  0  0  0  0  0  0  0  0
    0.4966   -2.4517    0.0000 C   0  0  0  0  0  0  0  0  0  0  0  0
    0.1481   -0.9928    0.0000 C   0  0  0  0  0  0  0  0  0  0  0  0
   -1.2896   -0.5651    0.0000 P   0  0  0  0  0  0  0  0  0  0  0  0
   -1.6381    0.8939    0.0000 C   0  0  0  0  0  0  0  0  0  0  0  0
   -0.5489    1.9252    0.0000 C   0  0  0  0  0  0  0  0  0  0  0  0
   -0.8974    3.3841    0.0000 C   0  0  0  0  0  0  0  0  0  0  0  0
   -2.3351    3.8118    0.0000 C   0  0  0  0  0  0  0  0  0  0  0  0
   -3.4244    2.7805    0.0000 C   0  0  0  0  0  0  0  0  0  0  0  0
   -3.0759    1.3216    0.0000 C   0  0  0  0  0  0  0  0  0  0  0  0
   -2.3789   -1.5964    0.0000 C   0  0  0  0  0  0  0  0  0  0  0  0
   -3.8166   -1.1687    0.0000 C   0  0  0  0  0  0  0  0  0  0  0  0
   -4.9059   -2.2000    0.0000 C   0  0  0  0  0  0  0  0  0  0  0  0
   -4.5574   -3.6589    0.0000 C   0  0  0  0  0  0  0  0  0  0  0  0
   -3.1196   -4.0866    0.0000 C   0  0  0  0  0  0  0  0  0  0  0  0
   -2.0304   -3.0553    0.0000 C   0  0  0  0  0  0  0  0  0  0  0  0
    1.2373    0.0385    0.0000 P   0  0  0  0  0  0  0  0  0  0  0  0
    2.6751   -0.3892    0.0000 C   0  0  0  0  0  0  0  0  0  0  0  0
    3.0236   -1.8481    0.0000 C   0  0  0  0  0  0  0  0  0  0  0  0
    4.4613   -2.2758    0.0000 C   0  0  0  0  0  0  0  0  0  0  0  0
    5.5506   -1.2445    0.0000 C   0  0  0  0  0  0  0  0  0  0  0  0
    5.2021    0.2145    0.0000 C   0  0  0  0  0  0  0  0  0  0  0  0
    3.7643    0.6421    0.0000 C   0  0  0  0  0  0  0  0  0  0  0  0
    0.8889    1.4975    0.0000 C   0  0  0  0  0  0  0  0  0  0  0  0
    1.9781    2.5288    0.0000 C   0  0  0  0  0  0  0  0  0  0  0  0
    1.6296    3.9877    0.0000 C   0  0  0  0  0  0  0  0  0  0  0  0
    0.1919    4.4154    0.0000 C   0  0  0  0  0  0  0  0  0  0  0  0
   -0.8974    3.3841    0.0000 C   0  0  0  0  0  0  0  0  0  0  0  0
   -0.5489    1.9252    0.0000 C   0  0  0  0  0  0  0  0  0  0  0  0
  1  2  1  0
  2  3  1  0
  3  4  1  0
  4  5  1  0
  5  6  1  0
  6  7  2  0
  7  8  1  0
  8  9  2  0
  9 10  1  0
 10 11  2  0
  5 12  1  0
 12 13  2  0
 13 14  1  0
 14 15  2  0
 15 16  1  0
 16 17  2  0
  4 18  1  0
 18 19  1  0
 19 20  2  0
 20 21  1  0
 21 22  2  0
 22 23  1  0
 23 24  2  0
 18 25  1  0
 25 26  2  0
 26 27  1  0
 27 28  2  0
 28 29  1  0
 29 30  2  0
 11  6  1  0
 17 12  1  0
 24 19  1  0
 30 25  1  0
M  END
>  <linear_selectivity>  (899) 
66

>  <denticity>  (899) 
2

>  <ligand_class>  (899) 
diphosphine

$$$$
dppb_130C_benzene
     RDKit          2D

 30 33  0  0  0  0  0  0  0  0999 V2000
    2.2828   -4.3383    0.0000 C   0  0  0  0  0  0  0  0  0  0  0  0
    1.9343   -2.8794    0.0000 C   0  0  0  0  0  0  0  0  0  0  0  0
    0.4966   -2.4517    0.0000 C   0  0  0  0  0  0  0  0  0  0  0  0
    0.1481   -0.9928    0.0000 C   0  0  0  0  0  0  0  0  0  0  0  0
   -1.2896   -0.5651    0.0000 P   0  0  0  0  0  0  0  0  0  0  0  0
   -1.6381    0.8939    0.0000 C   0  0  0  0  0  0  0  0  0  0  0  0
   -0.5489    1.9252    0.0000 C   0  0  0  0  0  0  0  0  0  0  0  0
   -0.8974    3.3841    0.0000 C   0  0  0  0  0  0  0  0  0  0  0  0
   -2.3351    3.8118    0.0000 C   0  0  0  0  0  0  0  0  0  0  0  0
   -3.4244    2.7805    0.0000 C   0  0  0  0  0  0  0  0  0  0  0  0
   -3.0759    1.3216    0.0000 C   0  0  0  0  0  0  0  0  0  0  0  0
   -2.3789   -1.5964    0.0000 C   0  0  0  0  0  0  0  0  0  0  0  0
   -3.8166   -1.1687    0.0000 C   0  0  0  0  0  0  0  0  0  0  0  0
   -4.9059   -2.2000    0.0000 C   0  0  0  0  0  0  0  0  0  0  0  0
   -4.5574   -3.6589    0.0000 C   0  0  0  0  0  0  0  0  0  0  0  0
   -3.1196   -4.0866    0.0000 C   0  0  0  0  0  0  0  0  0  0  0  0
   -2.0304   -3.0553    0.0000 C   0  0  0  0  0  0  0  0  0  0  0  0
    1.2373    0.0385    0.0000 P   0  0  0  0  0  0  0  0  0  0  0  0
    2.6751   -0.3892    0.0000 C   0  0  0  0  0  0  0  0  0  0  0  0
    3.0236   -1.8481    0.0000 C   0  0  0  0  0  0  0  0  0  0  0  0
    4.4613   -2.2758    0.0000 C   0  0  0  0  0  0  0  0  0  0  0  0
    5.5506   -1.2445    0.0000 C   0  0  0  0  0  0  0  0  0  0  0  0
    5.2021    0.2145    0.0000 C   0  0  0  0  0  0  0  0  0  0  0  0
    3.7643    0.6421    0.0000 C   0  0  0  0  0  0  0  0  0  0  0  0
    0.8889    1.4975    0.0000 C   0  0  0  0  0  0  0  0  0  0  0  0
    1.9781    2.5288    0.0000 C   0  0  0  0  0  0  0  0  0  0  0  0
    1.6296    3.9877    0.0000 C   0  0  0  0  0  0  0  0  0  0  0  0
    0.1919    4.4154    0.0000 C   0  0  0  0  0  0  0  0  0  0  0  0
   -0.8974    3.3841    0.0000 C   0  0  0  0  0  0  0  0  0  0  0  0
   -0.5489    1.9252    0.0000 C   0  0  0  0  0  0  0  0  0  0  0  0
  1  2  1  0
  2  3  1  0
  3  4  1  0
  4  5  1  0
  5  6  1  0
  6  7  2  0
  7  8  1  0
  8  9  2  0
  9 10  1  0
 10 11  2  0
  5 12  1  0
 12 13  2  0
 13 14  1  0
 14 15  2  0
 15 16  1  0
 16 17  2  0
  4 18  1  0
 18 19  1  0
 19 20  2  0
 20 21  1  0
 21 22  2  0
 22 23  1  0
 23 24  2  0
 18 25  1  0
 25 26  2  0
 26 27  1  0
 27 28  2  0
 28 29  1  0
 29 30  2  0
 11  6  1  0
 17 12  1  0
 24 19  1  0
 30 25  1  0
M  END
>  <linear_selectivity>  (900) 
63

>  <denticity>  (900) 
2

>  <ligand_class>  (900) 
diphosphine

$$$$
dpppe
     RDKit          2D

 31 34  0  0  0  0  0  0  0  0999 V2000
   -5.0284    2.9920    0.0000 C   0  0  0  0  0  0  0  0  0  0  0  0
   -3.5335    3.1150    0.0000 C   0  0  0  0  0  0  0  0  0  0  0  0
   -2.6795    1.8818    0.0000 C   0  0  0  0  0  0  0  0  0  0  0  0
   -1.1845    2.0048    0.0000 C   0  0  0  0  0  0  0  0  0  0  0  0
   -0.3305    0.7717    0.0000 C   0  0  0  0  0  0  0  0  0  0  0  0
    1.1644    0.8947    0.0000 P   0  0  0  0  0  0  0  0  0  0  0  0
    1.8054    2.2508    0.0000 C   0  0  0  0  0  0  0  0  0  0  0  0
    0.9514    3.4840    0.0000 C   0  0  0  0  0  0  0  0  0  0  0  0
    1.5923    4.8402    0.0000 C   0  0  0  0  0  0  0  0  0  0  0  0
    3.0873    4.9632    0.0000 C   0  0  0  0  0  0  0  0  0  0  0  0
    3.9413    3.7300    0.0000 C   0  0  0  0  0  0  0  0  0  0  0  0
    3.3003    2.3738    0.0000 C   0  0  0  0  0  0  0  0  0  0  0  0
    2.0184   -0.3385    0.0000 C   0  0  0  0  0  0  0  0  0  0  0  0
    3.5134   -0.2155    0.0000 C   0  0  0  0  0  0  0  0  0  0  0  0
    4.3674   -1.4486    0.0000 C   0  0  0  0  0  0  0  0  0  0  0  0
    3.7264   -2.8048    0.0000 C   0  0  0  0  0  0  0  0  0  0  0  0
    2.2315   -2.9278    0.0000 C   0  0  0  0  0  0  0  0  0  0  0  0
    1.3775   -1.6946    0.0000 C   0  0  0  0  0  0  0  0  0  0  0  0
   -0.9715   -0.5845    0.0000 P   0  0  0  0  0  0  0  0  0  0  0  0
   -2.4664   -0.7075    0.0000 C   0  0  0  0  0  0  0  0  0  0  0  0
   -3.3204    0.5257    0.0000 C   0  0  0  0  0  0  0  0  0  0  0  0
   -4.8154    0.4027    0.0000 C   0  0  0  0  0  0  0  0  0  0  0  0
   -5.4563   -0.9535    0.0000 C   0  0  0  0  0  0  0  0  0  0  0  0
   -4.6023   -2.1866    0.0000 C   0  0  0  0  0  0  0  0  0  0  0  0
   -3.1074   -2.0636    0.0000 C   0  0  0  0  0  0  0  0  0  0  0  0
   -0.1175   -1.8176    0.0000 C   0  0  0  0  0  0  0  0  0  0  0  0
   -0.7584   -3.1738    0.0000 C   0  0  0  0  0  0  0  0  0  0  0  0
    0.0956   -4.4070    0.0000 C   0  0  0  0  0  0  0  0  0  0  0  0
    1.5905   -4.2840    0.0000 C   0  0  0  0  0  0  0  0  0  0  0  0
    2.2315   -2.9278    0.0000 C   0  0  0  0  0  0  0  0  0  0  0  0
    1.3775   -1.6946    0.0000 C   0  0  0  0  0  0  0  0  0  0  0  0
  1  2  1  0
  2  3  1  0
  3  4  1  0
  4  5  1  0
  5  6  1  0
  6  7  1  0
  7  8  2  0
  8  9  1  0
  9 10  2  0
 10 11  1  0
 11 12  2  0
  6 13  1  0
 13 14  2  0
 14 15  1  0
 15 16  2  0
 16 17  1  0
 17 18  2  0
  5 19  1  0
 19 20  1  0
 20 21  2  0
 21 22  1  0
 22 23  2  0
 23 24  1  0
 24 25  2  0
 19 26  1  0
 26 27  2  0
 27 28  1  0
 28 29  2  0
 29 30  1  0
 30 31  2  0
 12  7  1  0
 18 13  1  0
 25 20  1  0
 31 26  1  0
M  END
>  <linear_selectivity>  (901) 
65

>  <denticity>  (901) 
2

>  <ligand_class>  (901) 
diphosphine

$$$$
dpppe_70C_dioxane
     RDKit          2D

 31 34  0  0  0  0  0  0  0  0999 V2000
   -5.0284    2.9920    0.0000 C   0  0  0  0  0  0  0  0  0  0  0  0
   -3.5335    3.1150    0.0000 C   0  0  0  0  0  0  0  0  0  0  0  0
   -2.6795    1.8818    0.0000 C   0  0  0  0  0  0  0  0  0  0  0  0
   -1.1845    2.0048    0.0000 C   0  0  0  0  0  0  0  0  0  0  0  0
   -0.3305    0.7717    0.0000 C   0  0  0  0  0  0  0  0  0  0  0  0
    1.1644    0.8947    0.0000 P   0  0  0  0  0  0  0  0  0  0  0  0
    1.8054    2.2508    0.0000 C   0  0  0  0  0  0  0  0  0  0  0  0
    0.9514    3.4840    0.0000 C   0  0  0  0  0  0  0  0  0  0  0  0
    1.5923    4.8402    0.0000 C   0  0  0  0  0  0  0  0  0  0  0  0
    3.0873    4.9632    0.0000 C   0  0  0  0  0  0  0  0  0  0  0  0
    3.9413    3.7300    0.0000 C   0  0  0  0  0  0  0  0  0  0  0  0
    3.3003    2.3738    0.0000 C   0  0  0  0  0  0  0  0  0  0  0  0
    2.0184   -0.3385    0.0000 C   0  0  0  0  0  0  0  0  0  0  0  0
    3.5134   -0.2155    0.0000 C   0  0  0  0  0  0  0  0  0  0  0  0
    4.3674   -1.4486    0.0000 C   0  0  0  0  0  0  0  0  0  0  0  0
    3.7264   -2.8048    0.0000 C   0  0  0  0  0  0  0  0  0  0  0  0
    2.2315   -2.9278    0.0000 C   0  0  0  0  0  0  0  0  0  0  0  0
    1.3775   -1.6946    0.0000 C   0  0  0  0  0  0  0  0  0  0  0  0
   -0.9715   -0.5845    0.0000 P   0  0  0  0  0  0  0  0  0  0  0  0
   -2.4664   -0.7075    0.0000 C   0  0  0  0  0  0  0  0  0  0  0  0
   -3.3204    0.5257    0.0000 C   0  0  0  0  0  0  0  0  0  0  0  0
   -4.8154    0.4027    0.0000 C   0  0  0  0  0  0  0  0  0  0  0  0
   -5.4563   -0.9535    0.0000 C   0  0  0  0  0  0  0  0  0  0  0  0
   -4.6023   -2.1866    0.0000 C   0  0  0  0  0  0  0  0  0  0  0  0
   -3.1074   -2.0636    0.0000 C   0  0  0  0  0  0  0  0  0  0  0  0
   -0.1175   -1.8176    0.0000 C   0  0  0  0  0  0  0  0  0  0  0  0
   -0.7584   -3.1738    0.0000 C   0  0  0  0  0  0  0  0  0  0  0  0
    0.0956   -4.4070    0.0000 C   0  0  0  0  0  0  0  0  0  0  0  0
    1.5905   -4.2840    0.0000 C   0  0  0  0  0  0  0  0  0  0  0  0
    2.2315   -2.9278    0.0000 C   0  0  0  0  0  0  0  0  0  0  0  0
    1.3775   -1.6946    0.0000 C   0  0  0  0  0  0  0  0  0  0  0  0
  1  2  1  0
  2  3  1  0
  3  4  1  0
  4  5  1  0
  5  6  1  0
  6  7  1  0
  7  8  2  0
  8  9  1  0
  9 10  2  0
 10 11  1  0
 11 12  2  0
  6 13  1  0
 13 14  2  0
 14 15  1  0
 15 16  2  0
 16 17  1  0
 17 18  2  0
  5 19  1  0
 19 20  1  0
 20 21  2  0
 21 22  1  0
 22 23  2  0
 23 24  1  0
 24 25  2  0
 19 26  1  0
 26 27  2  0
 27 28  1  0
 28 29  2  0
 29 30  1  0
 30 31  2  0
 12  7  1  0
 18 13  1  0
 25 20  1  0
 31 26  1  0
M  END
>  <linear_selectivity>  (902) 
71

>  <denticity>  (902) 
2

>  <ligand_class>  (902) 
diphosphine

$$$$
dpppe_70C_hexane
     RDKit          2D

 31 34  0  0  0  0  0  0  0  0999 V2000
   -5.0284    2.9920    0.0000 C   0  0  0  0  0  0  0  0  0  0  0  0
   -3.5335    3.1150    0.0000 C   0  0  0  0  0  0  0  0  0  0  0  0
   -2.6795    1.8818    0.0000 C   0  0  0  0  0  0  0  0  0  0  0  0
   -1.1845    2.0048    0.0000 C   0  0  0  0  0  0  0  0  0  0  0  0
   -0.3305    0.7717    0.0000 C   0  0  0  0  0  0  0  0  0  0  0  0
    1.1644    0.8947    0.0000 P   0  0  0  0  0  0  0  0  0  0  0  0
    1.8054    2.2508    0.0000 C   0  0  0  0  0  0  0  0  0  0  0  0
    0.9514    3.4840    0.0000 C   0  0  0  0  0  0  0  0  0  0  0  0
    1.5923    4.8402    0.0000 C   0  0  0  0  0  0  0  0  0  0  0  0
    3.0873    4.9632    0.0000 C   0  0  0  0  0  0  0  0  0  0  0  0
    3.9413    3.7300    0.0000 C   0  0  0  0  0  0  0  0  0  0  0  0
    3.3003    2.3738    0.0000 C   0  0  0  0  0  0  0  0  0  0  0  0
    2.0184   -0.3385    0.0000 C   0  0  0  0  0  0  0  0  0  0  0  0
    3.5134   -0.2155    0.0000 C   0  0  0  0  0  0  0  0  0  0  0  0
    4.3674   -1.4486    0.0000 C   0  0  0  0  0  0  0  0  0  0  0  0
    3.7264   -2.8048    0.0000 C   0  0  0  0  0  0  0  0  0  0  0  0
    2.2315   -2.9278    0.0000 C   0  0  0  0  0  0  0  0  0  0  0  0
    1.3775   -1.6946    0.0000 C   0  0  0  0  0  0  0  0  0  0  0  0
   -0.9715   -0.5845    0.0000 P   0  0  0  0  0  0  0  0  0  0  0  0
   -2.4664   -0.7075    0.0000 C   0  0  0  0  0  0  0  0  0  0  0  0
   -3.3204    0.5257    0.0000 C   0  0  0  0  0  0  0  0  0  0  0  0
   -4.8154    0.4027    0.0000 C   0  0  0  0  0  0  0  0  0  0  0  0
   -5.4563   -0.9535    0.0000 C   0  0  0  0  0  0  0  0  0  0  0  0
   -4.6023   -2.1866    0.0000 C   0  0  0  0  0  0  0  0  0  0  0  0
   -3.1074   -2.0636    0.0000 C   0  0  0  0  0  0  0  0  0  0  0  0
   -0.1175   -1.8176    0.0000 C   0  0  0  0  0  0  0  0  0  0  0  0
   -0.7584   -3.1738    0.0000 C   0  0  0  0  0  0  0  0  0  0  0  0
    0.0956   -4.4070    0.0000 C   0  0  0  0  0  0  0  0  0  0  0  0
    1.5905   -4.2840    0.0000 C   0  0  0  0  0  0  0  0  0  0  0  0
    2.2315   -2.9278    0.0000 C   0  0  0  0  0  0  0  0  0  0  0  0
    1.3775   -1.6946    0.0000 C   0  0  0  0  0  0  0  0  0  0  0  0
  1  2  1  0
  2  3  1  0
  3  4  1  0
  4  5  1  0
  5  6  1  0
  6  7  1  0
  7  8  2  0
  8  9  1  0
  9 10  2  0
 10 11  1  0
 11 12  2  0
  6 13  1  0
 13 14  2  0
 14 15  1  0
 15 16  2  0
 16 17  1  0
 17 18  2  0
  5 19  1  0
 19 20  1  0
 20 21  2  0
 21 22  1  0
 22 23  2  0
 23 24  1  0
 24 25  2  0
 19 26  1  0
 26 27  2  0
 27 28  1  0
 28 29  2  0
 29 30  1  0
 30 31  2  0
 12  7  1  0
 18 13  1  0
 25 20  1  0
 31 26  1  0
M  END
>  <linear_selectivity>  (903) 
73

>  <denticity>  (903) 
2

>  <ligand_class>  (903) 
diphosphine

$$$$
dpppe_70C_xylene
     RDKit          2D

 31 34  0  0  0  0  0  0  0  0999 V2000
   -5.0284    2.9920    0.0000 C   0  0  0  0  0  0  0  0  0  0  0  0
   -3.5335    3.1150    0.0000 C   0  0  0  0  0  0  0  0  0  0  0  0
   -2.6795    1.8818    0.0000 C   0  0  0  0  0  0  0  0  0  0  0  0
   -1.1845    2.0048    0.0000 C   0  0  0  0  0  0  0  0  0  0  0  0
   -0.3305    0.7717    0.0000 C   0  0  0  0  0  0  0  0  0  0  0  0
    1.1644    0.8947    0.0000 P   0  0  0  0  0  0  0  0  0  0  0  0
    1.8054    2.2508    0.0000 C   0  0  0  0  0  0  0  0  0  0  0  0
    0.9514    3.4840    0.0000 C   0  0  0  0  0  0  0  0  0  0  0  0
    1.5923    4.8402    0.0000 C   0  0  0  0  0  0  0  0  0  0  0  0
    3.0873    4.9632    0.0000 C   0  0  0  0  0  0  0  0  0  0  0  0
    3.9413    3.7300    0.0000 C   0  0  0  0  0  0  0  0  0  0  0  0
    3.3003    2.3738    0.0000 C   0  0  0  0  0  0  0  0  0  0  0  0
    2.0184   -0.3385    0.0000 C   0  0  0  0  0  0  0  0  0  0  0  0
    3.5134   -0.2155    0.0000 C   0  0  0  0  0  0  0  0  0  0  0  0
    4.3674   -1.4486    0.0000 C   0  0  0  0  0  0  0  0  0  0  0  0
    3.7264   -2.8048    0.0000 C   0  0  0  0  0  0  0  0  0  0  0  0
    2.2315   -2.9278    0.0000 C   0  0  0  0  0  0  0  0  0  0  0  0
    1.3775   -1.6946    0.0000 C   0  0  0  0  0  0  0  0  0  0  0  0
   -0.9715   -0.5845    0.0000 P   0  0  0  0  0  0  0  0  0  0  0  0
   -2.4664   -0.7075    0.0000 C   0  0  0  0  0  0  0  0  0  0  0  0
   -3.3204    0.5257    0.0000 C   0  0  0  0  0  0  0  0  0  0  0  0
   -4.8154    0.4027    0.0000 C   0  0  0  0  0  0  0  0  0  0  0  0
   -5.4563   -0.9535    0.0000 C   0  0  0  0  0  0  0  0  0  0  0  0
   -4.6023   -2.1866    0.0000 C   0  0  0  0  0  0  0  0  0  0  0  0
   -3.1074   -2.0636    0.0000 C   0  0  0  0  0  0  0  0  0  0  0  0
   -0.1175   -1.8176    0.0000 C   0  0  0  0  0  0  0  0  0  0  0  0
   -0.7584   -3.1738    0.0000 C   0  0  0  0  0  0  0  0  0  0  0  0
    0.0956   -4.4070    0.0000 C   0  0  0  0  0  0  0  0  0  0  0  0
    1.5905   -4.2840    0.0000 C   0  0  0  0  0  0  0  0  0  0  0  0
    2.2315   -2.9278    0.0000 C   0  0  0  0  0  0  0  0  0  0  0  0
    1.3775   -1.6946    0.0000 C   0  0  0  0  0  0  0  0  0  0  0  0
  1  2  1  0
  2  3  1  0
  3  4  1  0
  4  5  1  0
  5  6  1  0
  6  7  1  0
  7  8  2  0
  8  9  1  0
  9 10  2  0
 10 11  1  0
 11 12  2  0
  6 13  1  0
 13 14  2  0
 14 15  1  0
 15 16  2  0
 16 17  1  0
 17 18  2  0
  5 19  1  0
 19 20  1  0
 20 21  2  0
 21 22  1  0
 22 23  2  0
 23 24  1  0
 24 25  2  0
 19 26  1  0
 26 27  2  0
 27 28  1  0
 28 29  2  0
 29 30  1  0
 30 31  2  0
 12  7  1  0
 18 13  1  0
 25 20  1  0
 31 26  1  0
M  END
>  <linear_selectivity>  (904) 
73

>  <denticity>  (904) 
2

>  <ligand_class>  (904) 
diphosphine

$$$$
dpppe_80C_THF
     RDKit          2D

 31 34  0  0  0  0  0  0  0  0999 V2000
   -5.0284    2.9920    0.0000 C   0  0  0  0  0  0  0  0  0  0  0  0
   -3.5335    3.1150    0.0000 C   0  0  0  0  0  0  0  0  0  0  0  0
   -2.6795    1.8818    0.0000 C   0  0  0  0  0  0  0  0  0  0  0  0
   -1.1845    2.0048    0.0000 C   0  0  0  0  0  0  0  0  0  0  0  0
   -0.3305    0.7717    0.0000 C   0  0  0  0  0  0  0  0  0  0  0  0
    1.1644    0.8947    0.0000 P   0  0  0  0  0  0  0  0  0  0  0  0
    1.8054    2.2508    0.0000 C   0  0  0  0  0  0  0  0  0  0  0  0
    0.9514    3.4840    0.0000 C   0  0  0  0  0  0  0  0  0  0  0  0
    1.5923    4.8402    0.0000 C   0  0  0  0  0  0  0  0  0  0  0  0
    3.0873    4.9632    0.0000 C   0  0  0  0  0  0  0  0  0  0  0  0
    3.9413    3.7300    0.0000 C   0  0  0  0  0  0  0  0  0  0  0  0
    3.3003    2.3738    0.0000 C   0  0  0  0  0  0  0  0  0  0  0  0
    2.0184   -0.3385    0.0000 C   0  0  0  0  0  0  0  0  0  0  0  0
    3.5134   -0.2155    0.0000 C   0  0  0  0  0  0  0  0  0  0  0  0
    4.3674   -1.4486    0.0000 C   0  0  0  0  0  0  0  0  0  0  0  0
    3.7264   -2.8048    0.0000 C   0  0  0  0  0  0  0  0  0  0  0  0
    2.2315   -2.9278    0.0000 C   0  0  0  0  0  0  0  0  0  0  0  0
    1.3775   -1.6946    0.0000 C   0  0  0  0  0  0  0  0  0  0  0  0
   -0.9715   -0.5845    0.0000 P   0  0  0  0  0  0  0  0  0  0  0  0
   -2.4664   -0.7075    0.0000 C   0  0  0  0  0  0  0  0  0  0  0  0
   -3.3204    0.5257    0.0000 C   0  0  0  0  0  0  0  0  0  0  0  0
   -4.8154    0.4027    0.0000 C   0  0  0  0  0  0  0  0  0  0  0  0
   -5.4563   -0.9535    0.0000 C   0  0  0  0  0  0  0  0  0  0  0  0
   -4.6023   -2.1866    0.0000 C   0  0  0  0  0  0  0  0  0  0  0  0
   -3.1074   -2.0636    0.0000 C   0  0  0  0  0  0  0  0  0  0  0  0
   -0.1175   -1.8176    0.0000 C   0  0  0  0  0  0  0  0  0  0  0  0
   -0.7584   -3.1738    0.0000 C   0  0  0  0  0  0  0  0  0  0  0  0
    0.0956   -4.4070    0.0000 C   0  0  0  0  0  0  0  0  0  0  0  0
    1.5905   -4.2840    0.0000 C   0  0  0  0  0  0  0  0  0  0  0  0
    2.2315   -2.9278    0.0000 C   0  0  0  0  0  0  0  0  0  0  0  0
    1.3775   -1.6946    0.0000 C   0  0  0  0  0  0  0  0  0  0  0  0
  1  2  1  0
  2  3  1  0
  3  4  1  0
  4  5  1  0
  5  6  1  0
  6  7  1  0
  7  8  2  0
  8  9  1  0
  9 10  2  0
 10 11  1  0
 11 12  2  0
  6 13  1  0
 13 14  2  0
 14 15  1  0
 15 16  2  0
 16 17  1  0
 17 18  2  0
  5 19  1  0
 19 20  1  0
 20 21  2  0
 21 22  1  0
 22 23  2  0
 23 24  1  0
 24 25  2  0
 19 26  1  0
 26 27  2  0
 27 28  1  0
 28 29  2  0
 29 30  1  0
 30 31  2  0
 12  7  1  0
 18 13  1  0
 25 20  1  0
 31 26  1  0
M  END
>  <linear_selectivity>  (905) 
65

>  <denticity>  (905) 
2

>  <ligand_class>  (905) 
diphosphine

$$$$
dpppe_80C_dioxane
     RDKit          2D

 31 34  0  0  0  0  0  0  0  0999 V2000
   -5.0284    2.9920    0.0000 C   0  0  0  0  0  0  0  0  0  0  0  0
   -3.5335    3.1150    0.0000 C   0  0  0  0  0  0  0  0  0  0  0  0
   -2.6795    1.8818    0.0000 C   0  0  0  0  0  0  0  0  0  0  0  0
   -1.1845    2.0048    0.0000 C   0  0  0  0  0  0  0  0  0  0  0  0
   -0.3305    0.7717    0.0000 C   0  0  0  0  0  0  0  0  0  0  0  0
    1.1644    0.8947    0.0000 P   0  0  0  0  0  0  0  0  0  0  0  0
    1.8054    2.2508    0.0000 C   0  0  0  0  0  0  0  0  0  0  0  0
    0.9514    3.4840    0.0000 C   0  0  0  0  0  0  0  0  0  0  0  0
    1.5923    4.8402    0.0000 C   0  0  0  0  0  0  0  0  0  0  0  0
    3.0873    4.9632    0.0000 C   0  0  0  0  0  0  0  0  0  0  0  0
    3.9413    3.7300    0.0000 C   0  0  0  0  0  0  0  0  0  0  0  0
    3.3003    2.3738    0.0000 C   0  0  0  0  0  0  0  0  0  0  0  0
    2.0184   -0.3385    0.0000 C   0  0  0  0  0  0  0  0  0  0  0  0
    3.5134   -0.2155    0.0000 C   0  0  0  0  0  0  0  0  0  0  0  0
    4.3674   -1.4486    0.0000 C   0  0  0  0  0  0  0  0  0  0  0  0
    3.7264   -2.8048    0.0000 C   0  0  0  0  0  0  0  0  0  0  0  0
    2.2315   -2.9278    0.0000 C   0  0  0  0  0  0  0  0  0  0  0  0
    1.3775   -1.6946    0.0000 C   0  0  0  0  0  0  0  0  0  0  0  0
   -0.9715   -0.5845    0.0000 P   0  0  0  0  0  0  0  0  0  0  0  0
   -2.4664   -0.7075    0.0000 C   0  0  0  0  0  0  0  0  0  0  0  0
   -3.3204    0.5257    0.0000 C   0  0  0  0  0  0  0  0  0  0  0  0
   -4.8154    0.4027    0.0000 C   0  0  0  0  0  0  0  0  0  0  0  0
   -5.4563   -0.9535    0.0000 C   0  0  0  0  0  0  0  0  0  0  0  0
   -4.6023   -2.1866    0.0000 C   0  0  0  0  0  0  0  0  0  0  0  0
   -3.1074   -2.0636    0.0000 C   0  0  0  0  0  0  0  0  0  0  0  0
   -0.1175   -1.8176    0.0000 C   0  0  0  0  0  0  0  0  0  0  0  0
   -0.7584   -3.1738    0.0000 C   0  0  0  0  0  0  0  0  0  0  0  0
    0.0956   -4.4070    0.0000 C   0  0  0  0  0  0  0  0  0  0  0  0
    1.5905   -4.2840    0.0000 C   0  0  0  0  0  0  0  0  0  0  0  0
    2.2315   -2.9278    0.0000 C   0  0  0  0  0  0  0  0  0  0  0  0
    1.3775   -1.6946    0.0000 C   0  0  0  0  0  0  0  0  0  0  0  0
  1  2  1  0
  2  3  1  0
  3  4  1  0
  4  5  1  0
  5  6  1  0
  6  7  1  0
  7  8  2  0
  8  9  1  0
  9 10  2  0
 10 11  1  0
 11 12  2  0
  6 13  1  0
 13 14  2  0
 14 15  1  0
 15 16  2  0
 16 17  1  0
 17 18  2  0
  5 19  1  0
 19 20  1  0
 20 21  2  0
 21 22  1  0
 22 23  2  0
 23 24  1  0
 24 25  2  0
 19 26  1  0
 26 27  2  0
 27 28  1  0
 28 29  2  0
 29 30  1  0
 30 31  2  0
 12  7  1  0
 18 13  1  0
 25 20  1  0
 31 26  1  0
M  END
>  <linear_selectivity>  (906) 
67

>  <denticity>  (906) 
2

>  <ligand_class>  (906) 
diphosphine

$$$$
dpppe_80C_hexane
     RDKit          2D

 31 34  0  0  0  0  0  0  0  0999 V2000
   -5.0284    2.9920    0.0000 C   0  0  0  0  0  0  0  0  0  0  0  0
   -3.5335    3.1150    0.0000 C   0  0  0  0  0  0  0  0  0  0  0  0
   -2.6795    1.8818    0.0000 C   0  0  0  0  0  0  0  0  0  0  0  0
   -1.1845    2.0048    0.0000 C   0  0  0  0  0  0  0  0  0  0  0  0
   -0.3305    0.7717    0.0000 C   0  0  0  0  0  0  0  0  0  0  0  0
    1.1644    0.8947    0.0000 P   0  0  0  0  0  0  0  0  0  0  0  0
    1.8054    2.2508    0.0000 C   0  0  0  0  0  0  0  0  0  0  0  0
    0.9514    3.4840    0.0000 C   0  0  0  0  0  0  0  0  0  0  0  0
    1.5923    4.8402    0.0000 C   0  0  0  0  0  0  0  0  0  0  0  0
    3.0873    4.9632    0.0000 C   0  0  0  0  0  0  0  0  0  0  0  0
    3.9413    3.7300    0.0000 C   0  0  0  0  0  0  0  0  0  0  0  0
    3.3003    2.3738    0.0000 C   0  0  0  0  0  0  0  0  0  0  0  0
    2.0184   -0.3385    0.0000 C   0  0  0  0  0  0  0  0  0  0  0  0
    3.5134   -0.2155    0.0000 C   0  0  0  0  0  0  0  0  0  0  0  0
    4.3674   -1.4486    0.0000 C   0  0  0  0  0  0  0  0  0  0  0  0
    3.7264   -2.8048    0.0000 C   0  0  0  0  0  0  0  0  0  0  0  0
    2.2315   -2.9278    0.0000 C   0  0  0  0  0  0  0  0  0  0  0  0
    1.3775   -1.6946    0.0000 C   0  0  0  0  0  0  0  0  0  0  0  0
   -0.9715   -0.5845    0.0000 P   0  0  0  0  0  0  0  0  0  0  0  0
   -2.4664   -0.7075    0.0000 C   0  0  0  0  0  0  0  0  0  0  0  0
   -3.3204    0.5257    0.0000 C   0  0  0  0  0  0  0  0  0  0  0  0
   -4.8154    0.4027    0.0000 C   0  0  0  0  0  0  0  0  0  0  0  0
   -5.4563   -0.9535    0.0000 C   0  0  0  0  0  0  0  0  0  0  0  0
   -4.6023   -2.1866    0.0000 C   0  0  0  0  0  0  0  0  0  0  0  0
   -3.1074   -2.0636    0.0000 C   0  0  0  0  0  0  0  0  0  0  0  0
   -0.1175   -1.8176    0.0000 C   0  0  0  0  0  0  0  0  0  0  0  0
   -0.7584   -3.1738    0.0000 C   0  0  0  0  0  0  0  0  0  0  0  0
    0.0956   -4.4070    0.0000 C   0  0  0  0  0  0  0  0  0  0  0  0
    1.5905   -4.2840    0.0000 C   0  0  0  0  0  0  0  0  0  0  0  0
    2.2315   -2.9278    0.0000 C   0  0  0  0  0  0  0  0  0  0  0  0
    1.3775   -1.6946    0.0000 C   0  0  0  0  0  0  0  0  0  0  0  0
  1  2  1  0
  2  3  1  0
  3  4  1  0
  4  5  1  0
  5  6  1  0
  6  7  1  0
  7  8  2  0
  8  9  1  0
  9 10  2  0
 10 11  1  0
 11 12  2  0
  6 13  1  0
 13 14  2  0
 14 15  1  0
 15 16  2  0
 16 17  1  0
 17 18  2  0
  5 19  1  0
 19 20  1  0
 20 21  2  0
 21 22  1  0
 22 23  2  0
 23 24  1  0
 24 25  2  0
 19 26  1  0
 26 27  2  0
 27 28  1  0
 28 29  2  0
 29 30  1  0
 30 31  2  0
 12  7  1  0
 18 13  1  0
 25 20  1  0
 31 26  1  0
M  END
>  <linear_selectivity>  (907) 
74

>  <denticity>  (907) 
2

>  <ligand_class>  (907) 
diphosphine

$$$$
dpppe_80C_benzene
     RDKit          2D

 31 34  0  0  0  0  0  0  0  0999 V2000
   -5.0284    2.9920    0.0000 C   0  0  0  0  0  0  0  0  0  0  0  0
   -3.5335    3.1150    0.0000 C   0  0  0  0  0  0  0  0  0  0  0  0
   -2.6795    1.8818    0.0000 C   0  0  0  0  0  0  0  0  0  0  0  0
   -1.1845    2.0048    0.0000 C   0  0  0  0  0  0  0  0  0  0  0  0
   -0.3305    0.7717    0.0000 C   0  0  0  0  0  0  0  0  0  0  0  0
    1.1644    0.8947    0.0000 P   0  0  0  0  0  0  0  0  0  0  0  0
    1.8054    2.2508    0.0000 C   0  0  0  0  0  0  0  0  0  0  0  0
    0.9514    3.4840    0.0000 C   0  0  0  0  0  0  0  0  0  0  0  0
    1.5923    4.8402    0.0000 C   0  0  0  0  0  0  0  0  0  0  0  0
    3.0873    4.9632    0.0000 C   0  0  0  0  0  0  0  0  0  0  0  0
    3.9413    3.7300    0.0000 C   0  0  0  0  0  0  0  0  0  0  0  0
    3.3003    2.3738    0.0000 C   0  0  0  0  0  0  0  0  0  0  0  0
    2.0184   -0.3385    0.0000 C   0  0  0  0  0  0  0  0  0  0  0  0
    3.5134   -0.2155    0.0000 C   0  0  0  0  0  0  0  0  0  0  0  0
    4.3674   -1.4486    0.0000 C   0  0  0  0  0  0  0  0  0  0  0  0
    3.7264   -2.8048    0.0000 C   0  0  0  0  0  0  0  0  0  0  0  0
    2.2315   -2.9278    0.0000 C   0  0  0  0  0  0  0  0  0  0  0  0
    1.3775   -1.6946    0.0000 C   0  0  0  0  0  0  0  0  0  0  0  0
   -0.9715   -0.5845    0.0000 P   0  0  0  0  0  0  0  0  0  0  0  0
   -2.4664   -0.7075    0.0000 C   0  0  0  0  0  0  0  0  0  0  0  0
   -3.3204    0.5257    0.0000 C   0  0  0  0  0  0  0  0  0  0  0  0
   -4.8154    0.4027    0.0000 C   0  0  0  0  0  0  0  0  0  0  0  0
   -5.4563   -0.9535    0.0000 C   0  0  0  0  0  0  0  0  0  0  0  0
   -4.6023   -2.1866    0.0000 C   0  0  0  0  0  0  0  0  0  0  0  0
   -3.1074   -2.0636    0.0000 C   0  0  0  0  0  0  0  0  0  0  0  0
   -0.1175   -1.8176    0.0000 C   0  0  0  0  0  0  0  0  0  0  0  0
   -0.7584   -3.1738    0.0000 C   0  0  0  0  0  0  0  0  0  0  0  0
    0.0956   -4.4070    0.0000 C   0  0  0  0  0  0  0  0  0  0  0  0
    1.5905   -4.2840    0.0000 C   0  0  0  0  0  0  0  0  0  0  0  0
    2.2315   -2.9278    0.0000 C   0  0  0  0  0  0  0  0  0  0  0  0
    1.3775   -1.6946    0.0000 C   0  0  0  0  0  0  0  0  0  0  0  0
  1  2  1  0
  2  3  1  0
  3  4  1  0
  4  5  1  0
  5  6  1  0
  6  7  1  0
  7  8  2  0
  8  9  1  0
  9 10  2  0
 10 11  1  0
 11 12  2  0
  6 13  1  0
 13 14  2  0
 14 15  1  0
 15 16  2  0
 16 17  1  0
 17 18  2  0
  5 19  1  0
 19 20  1  0
 20 21  2  0
 21 22  1  0
 22 23  2  0
 23 24  1  0
 24 25  2  0
 19 26  1  0
 26 27  2  0
 27 28  1  0
 28 29  2  0
 29 30  1  0
 30 31  2  0
 12  7  1  0
 18 13  1  0
 25 20  1  0
 31 26  1  0
M  END
>  <linear_selectivity>  (908) 
70

>  <denticity>  (908) 
2

>  <ligand_class>  (908) 
diphosphine

$$$$
dpppe_90C_toluene
     RDKit          2D

 31 34  0  0  0  0  0  0  0  0999 V2000
   -5.0284    2.9920    0.0000 C   0  0  0  0  0  0  0  0  0  0  0  0
   -3.5335    3.1150    0.0000 C   0  0  0  0  0  0  0  0  0  0  0  0
   -2.6795    1.8818    0.0000 C   0  0  0  0  0  0  0  0  0  0  0  0
   -1.1845    2.0048    0.0000 C   0  0  0  0  0  0  0  0  0  0  0  0
   -0.3305    0.7717    0.0000 C   0  0  0  0  0  0  0  0  0  0  0  0
    1.1644    0.8947    0.0000 P   0  0  0  0  0  0  0  0  0  0  0  0
    1.8054    2.2508    0.0000 C   0  0  0  0  0  0  0  0  0  0  0  0
    0.9514    3.4840    0.0000 C   0  0  0  0  0  0  0  0  0  0  0  0
    1.5923    4.8402    0.0000 C   0  0  0  0  0  0  0  0  0  0  0  0
    3.0873    4.9632    0.0000 C   0  0  0  0  0  0  0  0  0  0  0  0
    3.9413    3.7300    0.0000 C   0  0  0  0  0  0  0  0  0  0  0  0
    3.3003    2.3738    0.0000 C   0  0  0  0  0  0  0  0  0  0  0  0
    2.0184   -0.3385    0.0000 C   0  0  0  0  0  0  0  0  0  0  0  0
    3.5134   -0.2155    0.0000 C   0  0  0  0  0  0  0  0  0  0  0  0
    4.3674   -1.4486    0.0000 C   0  0  0  0  0  0  0  0  0  0  0  0
    3.7264   -2.8048    0.0000 C   0  0  0  0  0  0  0  0  0  0  0  0
    2.2315   -2.9278    0.0000 C   0  0  0  0  0  0  0  0  0  0  0  0
    1.3775   -1.6946    0.0000 C   0  0  0  0  0  0  0  0  0  0  0  0
   -0.9715   -0.5845    0.0000 P   0  0  0  0  0  0  0  0  0  0  0  0
   -2.4664   -0.7075    0.0000 C   0  0  0  0  0  0  0  0  0  0  0  0
   -3.3204    0.5257    0.0000 C   0  0  0  0  0  0  0  0  0  0  0  0
   -4.8154    0.4027    0.0000 C   0  0  0  0  0  0  0  0  0  0  0  0
   -5.4563   -0.9535    0.0000 C   0  0  0  0  0  0  0  0  0  0  0  0
   -4.6023   -2.1866    0.0000 C   0  0  0  0  0  0  0  0  0  0  0  0
   -3.1074   -2.0636    0.0000 C   0  0  0  0  0  0  0  0  0  0  0  0
   -0.1175   -1.8176    0.0000 C   0  0  0  0  0  0  0  0  0  0  0  0
   -0.7584   -3.1738    0.0000 C   0  0  0  0  0  0  0  0  0  0  0  0
    0.0956   -4.4070    0.0000 C   0  0  0  0  0  0  0  0  0  0  0  0
    1.5905   -4.2840    0.0000 C   0  0  0  0  0  0  0  0  0  0  0  0
    2.2315   -2.9278    0.0000 C   0  0  0  0  0  0  0  0  0  0  0  0
    1.3775   -1.6946    0.0000 C   0  0  0  0  0  0  0  0  0  0  0  0
  1  2  1  0
  2  3  1  0
  3  4  1  0
  4  5  1  0
  5  6  1  0
  6  7  1  0
  7  8  2  0
  8  9  1  0
  9 10  2  0
 10 11  1  0
 11 12  2  0
  6 13  1  0
 13 14  2  0
 14 15  1  0
 15 16  2  0
 16 17  1  0
 17 18  2  0
  5 19  1  0
 19 20  1  0
 20 21  2  0
 21 22  1  0
 22 23  2  0
 23 24  1  0
 24 25  2  0
 19 26  1  0
 26 27  2  0
 27 28  1  0
 28 29  2  0
 29 30  1  0
 30 31  2  0
 12  7  1  0
 18 13  1  0
 25 20  1  0
 31 26  1  0
M  END
>  <linear_selectivity>  (909) 
69

>  <denticity>  (909) 
2

>  <ligand_class>  (909) 
diphosphine

$$$$
dpppe_90C_THF
     RDKit          2D

 31 34  0  0  0  0  0  0  0  0999 V2000
   -5.0284    2.9920    0.0000 C   0  0  0  0  0  0  0  0  0  0  0  0
   -3.5335    3.1150    0.0000 C   0  0  0  0  0  0  0  0  0  0  0  0
   -2.6795    1.8818    0.0000 C   0  0  0  0  0  0  0  0  0  0  0  0
   -1.1845    2.0048    0.0000 C   0  0  0  0  0  0  0  0  0  0  0  0
   -0.3305    0.7717    0.0000 C   0  0  0  0  0  0  0  0  0  0  0  0
    1.1644    0.8947    0.0000 P   0  0  0  0  0  0  0  0  0  0  0  0
    1.8054    2.2508    0.0000 C   0  0  0  0  0  0  0  0  0  0  0  0
    0.9514    3.4840    0.0000 C   0  0  0  0  0  0  0  0  0  0  0  0
    1.5923    4.8402    0.0000 C   0  0  0  0  0  0  0  0  0  0  0  0
    3.0873    4.9632    0.0000 C   0  0  0  0  0  0  0  0  0  0  0  0
    3.9413    3.7300    0.0000 C   0  0  0  0  0  0  0  0  0  0  0  0
    3.3003    2.3738    0.0000 C   0  0  0  0  0  0  0  0  0  0  0  0
    2.0184   -0.3385    0.0000 C   0  0  0  0  0  0  0  0  0  0  0  0
    3.5134   -0.2155    0.0000 C   0  0  0  0  0  0  0  0  0  0  0  0
    4.3674   -1.4486    0.0000 C   0  0  0  0  0  0  0  0  0  0  0  0
    3.7264   -2.8048    0.0000 C   0  0  0  0  0  0  0  0  0  0  0  0
    2.2315   -2.9278    0.0000 C   0  0  0  0  0  0  0  0  0  0  0  0
    1.3775   -1.6946    0.0000 C   0  0  0  0  0  0  0  0  0  0  0  0
   -0.9715   -0.5845    0.0000 P   0  0  0  0  0  0  0  0  0  0  0  0
   -2.4664   -0.7075    0.0000 C   0  0  0  0  0  0  0  0  0  0  0  0
   -3.3204    0.5257    0.0000 C   0  0  0  0  0  0  0  0  0  0  0  0
   -4.8154    0.4027    0.0000 C   0  0  0  0  0  0  0  0  0  0  0  0
   -5.4563   -0.9535    0.0000 C   0  0  0  0  0  0  0  0  0  0  0  0
   -4.6023   -2.1866    0.0000 C   0  0  0  0  0  0  0  0  0  0  0  0
   -3.1074   -2.0636    0.0000 C   0  0  0  0  0  0  0  0  0  0  0  0
   -0.1175   -1.8176    0.0000 C   0  0  0  0  0  0  0  0  0  0  0  0
   -0.7584   -3.1738    0.0000 C   0  0  0  0  0  0  0  0  0  0  0  0
    0.0956   -4.4070    0.0000 C   0  0  0  0  0  0  0  0  0  0  0  0
    1.5905   -4.2840    0.0000 C   0  0  0  0  0  0  0  0  0  0  0  0
    2.2315   -2.9278    0.0000 C   0  0  0  0  0  0  0  0  0  0  0  0
    1.3775   -1.6946    0.0000 C   0  0  0  0  0  0  0  0  0  0  0  0
  1  2  1  0
  2  3  1  0
  3  4  1  0
  4  5  1  0
  5  6  1  0
  6  7  1  0
  7  8  2  0
  8  9  1  0
  9 10  2  0
 10 11  1  0
 11 12  2  0
  6 13  1  0
 13 14  2  0
 14 15  1  0
 15 16  2  0
 16 17  1  0
 17 18  2  0
  5 19  1  0
 19 20  1  0
 20 21  2  0
 21 22  1  0
 22 23  2  0
 23 24  1  0
 24 25  2  0
 19 26  1  0
 26 27  2  0
 27 28  1  0
 28 29  2  0
 29 30  1  0
 30 31  2  0
 12  7  1  0
 18 13  1  0
 25 20  1  0
 31 26  1  0
M  END
>  <linear_selectivity>  (910) 
63

>  <denticity>  (910) 
2

>  <ligand_class>  (910) 
diphosphine

$$$$
dpppe_90C_hexane
     RDKit          2D

 31 34  0  0  0  0  0  0  0  0999 V2000
   -5.0284    2.9920    0.0000 C   0  0  0  0  0  0  0  0  0  0  0  0
   -3.5335    3.1150    0.0000 C   0  0  0  0  0  0  0  0  0  0  0  0
   -2.6795    1.8818    0.0000 C   0  0  0  0  0  0  0  0  0  0  0  0
   -1.1845    2.0048    0.0000 C   0  0  0  0  0  0  0  0  0  0  0  0
   -0.3305    0.7717    0.0000 C   0  0  0  0  0  0  0  0  0  0  0  0
    1.1644    0.8947    0.0000 P   0  0  0  0  0  0  0  0  0  0  0  0
    1.8054    2.2508    0.0000 C   0  0  0  0  0  0  0  0  0  0  0  0
    0.9514    3.4840    0.0000 C   0  0  0  0  0  0  0  0  0  0  0  0
    1.5923    4.8402    0.0000 C   0  0  0  0  0  0  0  0  0  0  0  0
    3.0873    4.9632    0.0000 C   0  0  0  0  0  0  0  0  0  0  0  0
    3.9413    3.7300    0.0000 C   0  0  0  0  0  0  0  0  0  0  0  0
    3.3003    2.3738    0.0000 C   0  0  0  0  0  0  0  0  0  0  0  0
    2.0184   -0.3385    0.0000 C   0  0  0  0  0  0  0  0  0  0  0  0
    3.5134   -0.2155    0.0000 C   0  0  0  0  0  0  0  0  0  0  0  0
    4.3674   -1.4486    0.0000 C   0  0  0  0  0  0  0  0  0  0  0  0
    3.7264   -2.8048    0.0000 C   0  0  0  0  0  0  0  0  0  0  0  0
    2.2315   -2.9278    0.0000 C   0  0  0  0  0  0  0  0  0  0  0  0
    1.3775   -1.6946    0.0000 C   0  0  0  0  0  0  0  0  0  0  0  0
   -0.9715   -0.5845    0.0000 P   0  0  0  0  0  0  0  0  0  0  0  0
   -2.4664   -0.7075    0.0000 C   0  0  0  0  0  0  0  0  0  0  0  0
   -3.3204    0.5257    0.0000 C   0  0  0  0  0  0  0  0  0  0  0  0
   -4.8154    0.4027    0.0000 C   0  0  0  0  0  0  0  0  0  0  0  0
   -5.4563   -0.9535    0.0000 C   0  0  0  0  0  0  0  0  0  0  0  0
   -4.6023   -2.1866    0.0000 C   0  0  0  0  0  0  0  0  0  0  0  0
   -3.1074   -2.0636    0.0000 C   0  0  0  0  0  0  0  0  0  0  0  0
   -0.1175   -1.8176    0.0000 C   0  0  0  0  0  0  0  0  0  0  0  0
   -0.7584   -3.1738    0.0000 C   0  0  0  0  0  0  0  0  0  0  0  0
    0.0956   -4.4070    0.0000 C   0  0  0  0  0  0  0  0  0  0  0  0
    1.5905   -4.2840    0.0000 C   0  0  0  0  0  0  0  0  0  0  0  0
    2.2315   -2.9278    0.0000 C   0  0  0  0  0  0  0  0  0  0  0  0
    1.3775   -1.6946    0.0000 C   0  0  0  0  0  0  0  0  0  0  0  0
  1  2  1  0
  2  3  1  0
  3  4  1  0
  4  5  1  0
  5  6  1  0
  6  7  1  0
  7  8  2  0
  8  9  1  0
  9 10  2  0
 10 11  1  0
 11 12  2  0
  6 13  1  0
 13 14  2  0
 14 15  1  0
 15 16  2  0
 16 17  1  0
 17 18  2  0
  5 19  1  0
 19 20  1  0
 20 21  2  0
 21 22  1  0
 22 23  2  0
 23 24  1  0
 24 25  2  0
 19 26  1  0
 26 27  2  0
 27 28  1  0
 28 29  2  0
 29 30  1  0
 30 31  2  0
 12  7  1  0
 18 13  1  0
 25 20  1  0
 31 26  1  0
M  END
>  <linear_selectivity>  (911) 
71

>  <denticity>  (911) 
2

>  <ligand_class>  (911) 
diphosphine

$$$$
dpppe_90C_benzene
     RDKit          2D

 31 34  0  0  0  0  0  0  0  0999 V2000
   -5.0284    2.9920    0.0000 C   0  0  0  0  0  0  0  0  0  0  0  0
   -3.5335    3.1150    0.0000 C   0  0  0  0  0  0  0  0  0  0  0  0
   -2.6795    1.8818    0.0000 C   0  0  0  0  0  0  0  0  0  0  0  0
   -1.1845    2.0048    0.0000 C   0  0  0  0  0  0  0  0  0  0  0  0
   -0.3305    0.7717    0.0000 C   0  0  0  0  0  0  0  0  0  0  0  0
    1.1644    0.8947    0.0000 P   0  0  0  0  0  0  0  0  0  0  0  0
    1.8054    2.2508    0.0000 C   0  0  0  0  0  0  0  0  0  0  0  0
    0.9514    3.4840    0.0000 C   0  0  0  0  0  0  0  0  0  0  0  0
    1.5923    4.8402    0.0000 C   0  0  0  0  0  0  0  0  0  0  0  0
    3.0873    4.9632    0.0000 C   0  0  0  0  0  0  0  0  0  0  0  0
    3.9413    3.7300    0.0000 C   0  0  0  0  0  0  0  0  0  0  0  0
    3.3003    2.3738    0.0000 C   0  0  0  0  0  0  0  0  0  0  0  0
    2.0184   -0.3385    0.0000 C   0  0  0  0  0  0  0  0  0  0  0  0
    3.5134   -0.2155    0.0000 C   0  0  0  0  0  0  0  0  0  0  0  0
    4.3674   -1.4486    0.0000 C   0  0  0  0  0  0  0  0  0  0  0  0
    3.7264   -2.8048    0.0000 C   0  0  0  0  0  0  0  0  0  0  0  0
    2.2315   -2.9278    0.0000 C   0  0  0  0  0  0  0  0  0  0  0  0
    1.3775   -1.6946    0.0000 C   0  0  0  0  0  0  0  0  0  0  0  0
   -0.9715   -0.5845    0.0000 P   0  0  0  0  0  0  0  0  0  0  0  0
   -2.4664   -0.7075    0.0000 C   0  0  0  0  0  0  0  0  0  0  0  0
   -3.3204    0.5257    0.0000 C   0  0  0  0  0  0  0  0  0  0  0  0
   -4.8154    0.4027    0.0000 C   0  0  0  0  0  0  0  0  0  0  0  0
   -5.4563   -0.9535    0.0000 C   0  0  0  0  0  0  0  0  0  0  0  0
   -4.6023   -2.1866    0.0000 C   0  0  0  0  0  0  0  0  0  0  0  0
   -3.1074   -2.0636    0.0000 C   0  0  0  0  0  0  0  0  0  0  0  0
   -0.1175   -1.8176    0.0000 C   0  0  0  0  0  0  0  0  0  0  0  0
   -0.7584   -3.1738    0.0000 C   0  0  0  0  0  0  0  0  0  0  0  0
    0.0956   -4.4070    0.0000 C   0  0  0  0  0  0  0  0  0  0  0  0
    1.5905   -4.2840    0.0000 C   0  0  0  0  0  0  0  0  0  0  0  0
    2.2315   -2.9278    0.0000 C   0  0  0  0  0  0  0  0  0  0  0  0
    1.3775   -1.6946    0.0000 C   0  0  0  0  0  0  0  0  0  0  0  0
  1  2  1  0
  2  3  1  0
  3  4  1  0
  4  5  1  0
  5  6  1  0
  6  7  1  0
  7  8  2  0
  8  9  1  0
  9 10  2  0
 10 11  1  0
 11 12  2  0
  6 13  1  0
 13 14  2  0
 14 15  1  0
 15 16  2  0
 16 17  1  0
 17 18  2  0
  5 19  1  0
 19 20  1  0
 20 21  2  0
 21 22  1  0
 22 23  2  0
 23 24  1  0
 24 25  2  0
 19 26  1  0
 26 27  2  0
 27 28  1  0
 28 29  2  0
 29 30  1  0
 30 31  2  0
 12  7  1  0
 18 13  1  0
 25 20  1  0
 31 26  1  0
M  END
>  <linear_selectivity>  (912) 
69

>  <denticity>  (912) 
2

>  <ligand_class>  (912) 
diphosphine

$$$$
dpppe_90C_xylene
     RDKit          2D

 31 34  0  0  0  0  0  0  0  0999 V2000
   -5.0284    2.9920    0.0000 C   0  0  0  0  0  0  0  0  0  0  0  0
   -3.5335    3.1150    0.0000 C   0  0  0  0  0  0  0  0  0  0  0  0
   -2.6795    1.8818    0.0000 C   0  0  0  0  0  0  0  0  0  0  0  0
   -1.1845    2.0048    0.0000 C   0  0  0  0  0  0  0  0  0  0  0  0
   -0.3305    0.7717    0.0000 C   0  0  0  0  0  0  0  0  0  0  0  0
    1.1644    0.8947    0.0000 P   0  0  0  0  0  0  0  0  0  0  0  0
    1.8054    2.2508    0.0000 C   0  0  0  0  0  0  0  0  0  0  0  0
    0.9514    3.4840    0.0000 C   0  0  0  0  0  0  0  0  0  0  0  0
    1.5923    4.8402    0.0000 C   0  0  0  0  0  0  0  0  0  0  0  0
    3.0873    4.9632    0.0000 C   0  0  0  0  0  0  0  0  0  0  0  0
    3.9413    3.7300    0.0000 C   0  0  0  0  0  0  0  0  0  0  0  0
    3.3003    2.3738    0.0000 C   0  0  0  0  0  0  0  0  0  0  0  0
    2.0184   -0.3385    0.0000 C   0  0  0  0  0  0  0  0  0  0  0  0
    3.5134   -0.2155    0.0000 C   0  0  0  0  0  0  0  0  0  0  0  0
    4.3674   -1.4486    0.0000 C   0  0  0  0  0  0  0  0  0  0  0  0
    3.7264   -2.8048    0.0000 C   0  0  0  0  0  0  0  0  0  0  0  0
    2.2315   -2.9278    0.0000 C   0  0  0  0  0  0  0  0  0  0  0  0
    1.3775   -1.6946    0.0000 C   0  0  0  0  0  0  0  0  0  0  0  0
   -0.9715   -0.5845    0.0000 P   0  0  0  0  0  0  0  0  0  0  0  0
   -2.4664   -0.7075    0.0000 C   0  0  0  0  0  0  0  0  0  0  0  0
   -3.3204    0.5257    0.0000 C   0  0  0  0  0  0  0  0  0  0  0  0
   -4.8154    0.4027    0.0000 C   0  0  0  0  0  0  0  0  0  0  0  0
   -5.4563   -0.9535    0.0000 C   0  0  0  0  0  0  0  0  0  0  0  0
   -4.6023   -2.1866    0.0000 C   0  0  0  0  0  0  0  0  0  0  0  0
   -3.1074   -2.0636    0.0000 C   0  0  0  0  0  0  0  0  0  0  0  0
   -0.1175   -1.8176    0.0000 C   0  0  0  0  0  0  0  0  0  0  0  0
   -0.7584   -3.1738    0.0000 C   0  0  0  0  0  0  0  0  0  0  0  0
    0.0956   -4.4070    0.0000 C   0  0  0  0  0  0  0  0  0  0  0  0
    1.5905   -4.2840    0.0000 C   0  0  0  0  0  0  0  0  0  0  0  0
    2.2315   -2.9278    0.0000 C   0  0  0  0  0  0  0  0  0  0  0  0
    1.3775   -1.6946    0.0000 C   0  0  0  0  0  0  0  0  0  0  0  0
  1  2  1  0
  2  3  1  0
  3  4  1  0
  4  5  1  0
  5  6  1  0
  6  7  1  0
  7  8  2  0
  8  9  1  0
  9 10  2  0
 10 11  1  0
 11 12  2  0
  6 13  1  0
 13 14  2  0
 14 15  1  0
 15 16  2  0
 16 17  1  0
 17 18  2  0
  5 19  1  0
 19 20  1  0
 20 21  2  0
 21 22  1  0
 22 23  2  0
 23 24  1  0
 24 25  2  0
 19 26  1  0
 26 27  2  0
 27 28  1  0
 28 29  2  0
 29 30  1  0
 30 31  2  0
 12  7  1  0
 18 13  1  0
 25 20  1  0
 31 26  1  0
M  END
>  <linear_selectivity>  (913) 
72

>  <denticity>  (913) 
2

>  <ligand_class>  (913) 
diphosphine

$$$$
dpppe_100C_toluene
     RDKit          2D

 31 34  0  0  0  0  0  0  0  0999 V2000
   -5.0284    2.9920    0.0000 C   0  0  0  0  0  0  0  0  0  0  0  0
   -3.5335    3.1150    0.0000 C   0  0  0  0  0  0  0  0  0  0  0  0
   -2.6795    1.8818    0.0000 C   0  0  0  0  0  0  0  0  0  0  0  0
   -1.1845    2.0048    0.0000 C   0  0  0  0  0  0  0  0  0  0  0  0
   -0.3305    0.7717    0.0000 C   0  0  0  0  0  0  0  0  0  0  0  0
    1.1644    0.8947    0.0000 P   0  0  0  0  0  0  0  0  0  0  0  0
    1.8054    2.2508    0.0000 C   0  0  0  0  0  0  0  0  0  0  0  0
    0.9514    3.4840    0.0000 C   0  0  0  0  0  0  0  0  0  0  0  0
    1.5923    4.8402    0.0000 C   0  0  0  0  0  0  0  0  0  0  0  0
    3.0873    4.9632    0.0000 C   0  0  0  0  0  0  0  0  0  0  0  0
    3.9413    3.7300    0.0000 C   0  0  0  0  0  0  0  0  0  0  0  0
    3.3003    2.3738    0.0000 C   0  0  0  0  0  0  0  0  0  0  0  0
    2.0184   -0.3385    0.0000 C   0  0  0  0  0  0  0  0  0  0  0  0
    3.5134   -0.2155    0.0000 C   0  0  0  0  0  0  0  0  0  0  0  0
    4.3674   -1.4486    0.0000 C   0  0  0  0  0  0  0  0  0  0  0  0
    3.7264   -2.8048    0.0000 C   0  0  0  0  0  0  0  0  0  0  0  0
    2.2315   -2.9278    0.0000 C   0  0  0  0  0  0  0  0  0  0  0  0
    1.3775   -1.6946    0.0000 C   0  0  0  0  0  0  0  0  0  0  0  0
   -0.9715   -0.5845    0.0000 P   0  0  0  0  0  0  0  0  0  0  0  0
   -2.4664   -0.7075    0.0000 C   0  0  0  0  0  0  0  0  0  0  0  0
   -3.3204    0.5257    0.0000 C   0  0  0  0  0  0  0  0  0  0  0  0
   -4.8154    0.4027    0.0000 C   0  0  0  0  0  0  0  0  0  0  0  0
   -5.4563   -0.9535    0.0000 C   0  0  0  0  0  0  0  0  0  0  0  0
   -4.6023   -2.1866    0.0000 C   0  0  0  0  0  0  0  0  0  0  0  0
   -3.1074   -2.0636    0.0000 C   0  0  0  0  0  0  0  0  0  0  0  0
   -0.1175   -1.8176    0.0000 C   0  0  0  0  0  0  0  0  0  0  0  0
   -0.7584   -3.1738    0.0000 C   0  0  0  0  0  0  0  0  0  0  0  0
    0.0956   -4.4070    0.0000 C   0  0  0  0  0  0  0  0  0  0  0  0
    1.5905   -4.2840    0.0000 C   0  0  0  0  0  0  0  0  0  0  0  0
    2.2315   -2.9278    0.0000 C   0  0  0  0  0  0  0  0  0  0  0  0
    1.3775   -1.6946    0.0000 C   0  0  0  0  0  0  0  0  0  0  0  0
  1  2  1  0
  2  3  1  0
  3  4  1  0
  4  5  1  0
  5  6  1  0
  6  7  1  0
  7  8  2  0
  8  9  1  0
  9 10  2  0
 10 11  1  0
 11 12  2  0
  6 13  1  0
 13 14  2  0
 14 15  1  0
 15 16  2  0
 16 17  1  0
 17 18  2  0
  5 19  1  0
 19 20  1  0
 20 21  2  0
 21 22  1  0
 22 23  2  0
 23 24  1  0
 24 25  2  0
 19 26  1  0
 26 27  2  0
 27 28  1  0
 28 29  2  0
 29 30  1  0
 30 31  2  0
 12  7  1  0
 18 13  1  0
 25 20  1  0
 31 26  1  0
M  END
>  <linear_selectivity>  (914) 
65

>  <denticity>  (914) 
2

>  <ligand_class>  (914) 
diphosphine

$$$$
dpppe_100C_THF
     RDKit          2D

 31 34  0  0  0  0  0  0  0  0999 V2000
   -5.0284    2.9920    0.0000 C   0  0  0  0  0  0  0  0  0  0  0  0
   -3.5335    3.1150    0.0000 C   0  0  0  0  0  0  0  0  0  0  0  0
   -2.6795    1.8818    0.0000 C   0  0  0  0  0  0  0  0  0  0  0  0
   -1.1845    2.0048    0.0000 C   0  0  0  0  0  0  0  0  0  0  0  0
   -0.3305    0.7717    0.0000 C   0  0  0  0  0  0  0  0  0  0  0  0
    1.1644    0.8947    0.0000 P   0  0  0  0  0  0  0  0  0  0  0  0
    1.8054    2.2508    0.0000 C   0  0  0  0  0  0  0  0  0  0  0  0
    0.9514    3.4840    0.0000 C   0  0  0  0  0  0  0  0  0  0  0  0
    1.5923    4.8402    0.0000 C   0  0  0  0  0  0  0  0  0  0  0  0
    3.0873    4.9632    0.0000 C   0  0  0  0  0  0  0  0  0  0  0  0
    3.9413    3.7300    0.0000 C   0  0  0  0  0  0  0  0  0  0  0  0
    3.3003    2.3738    0.0000 C   0  0  0  0  0  0  0  0  0  0  0  0
    2.0184   -0.3385    0.0000 C   0  0  0  0  0  0  0  0  0  0  0  0
    3.5134   -0.2155    0.0000 C   0  0  0  0  0  0  0  0  0  0  0  0
    4.3674   -1.4486    0.0000 C   0  0  0  0  0  0  0  0  0  0  0  0
    3.7264   -2.8048    0.0000 C   0  0  0  0  0  0  0  0  0  0  0  0
    2.2315   -2.9278    0.0000 C   0  0  0  0  0  0  0  0  0  0  0  0
    1.3775   -1.6946    0.0000 C   0  0  0  0  0  0  0  0  0  0  0  0
   -0.9715   -0.5845    0.0000 P   0  0  0  0  0  0  0  0  0  0  0  0
   -2.4664   -0.7075    0.0000 C   0  0  0  0  0  0  0  0  0  0  0  0
   -3.3204    0.5257    0.0000 C   0  0  0  0  0  0  0  0  0  0  0  0
   -4.8154    0.4027    0.0000 C   0  0  0  0  0  0  0  0  0  0  0  0
   -5.4563   -0.9535    0.0000 C   0  0  0  0  0  0  0  0  0  0  0  0
   -4.6023   -2.1866    0.0000 C   0  0  0  0  0  0  0  0  0  0  0  0
   -3.1074   -2.0636    0.0000 C   0  0  0  0  0  0  0  0  0  0  0  0
   -0.1175   -1.8176    0.0000 C   0  0  0  0  0  0  0  0  0  0  0  0
   -0.7584   -3.1738    0.0000 C   0  0  0  0  0  0  0  0  0  0  0  0
    0.0956   -4.4070    0.0000 C   0  0  0  0  0  0  0  0  0  0  0  0
    1.5905   -4.2840    0.0000 C   0  0  0  0  0  0  0  0  0  0  0  0
    2.2315   -2.9278    0.0000 C   0  0  0  0  0  0  0  0  0  0  0  0
    1.3775   -1.6946    0.0000 C   0  0  0  0  0  0  0  0  0  0  0  0
  1  2  1  0
  2  3  1  0
  3  4  1  0
  4  5  1  0
  5  6  1  0
  6  7  1  0
  7  8  2  0
  8  9  1  0
  9 10  2  0
 10 11  1  0
 11 12  2  0
  6 13  1  0
 13 14  2  0
 14 15  1  0
 15 16  2  0
 16 17  1  0
 17 18  2  0
  5 19  1  0
 19 20  1  0
 20 21  2  0
 21 22  1  0
 22 23  2  0
 23 24  1  0
 24 25  2  0
 19 26  1  0
 26 27  2  0
 27 28  1  0
 28 29  2  0
 29 30  1  0
 30 31  2  0
 12  7  1  0
 18 13  1  0
 25 20  1  0
 31 26  1  0
M  END
>  <linear_selectivity>  (915) 
63

>  <denticity>  (915) 
2

>  <ligand_class>  (915) 
diphosphine

$$$$
dpppe_100C_dioxane
     RDKit          2D

 31 34  0  0  0  0  0  0  0  0999 V2000
   -5.0284    2.9920    0.0000 C   0  0  0  0  0  0  0  0  0  0  0  0
   -3.5335    3.1150    0.0000 C   0  0  0  0  0  0  0  0  0  0  0  0
   -2.6795    1.8818    0.0000 C   0  0  0  0  0  0  0  0  0  0  0  0
   -1.1845    2.0048    0.0000 C   0  0  0  0  0  0  0  0  0  0  0  0
   -0.3305    0.7717    0.0000 C   0  0  0  0  0  0  0  0  0  0  0  0
    1.1644    0.8947    0.0000 P   0  0  0  0  0  0  0  0  0  0  0  0
    1.8054    2.2508    0.0000 C   0  0  0  0  0  0  0  0  0  0  0  0
    0.9514    3.4840    0.0000 C   0  0  0  0  0  0  0  0  0  0  0  0
    1.5923    4.8402    0.0000 C   0  0  0  0  0  0  0  0  0  0  0  0
    3.0873    4.9632    0.0000 C   0  0  0  0  0  0  0  0  0  0  0  0
    3.9413    3.7300    0.0000 C   0  0  0  0  0  0  0  0  0  0  0  0
    3.3003    2.3738    0.0000 C   0  0  0  0  0  0  0  0  0  0  0  0
    2.0184   -0.3385    0.0000 C   0  0  0  0  0  0  0  0  0  0  0  0
    3.5134   -0.2155    0.0000 C   0  0  0  0  0  0  0  0  0  0  0  0
    4.3674   -1.4486    0.0000 C   0  0  0  0  0  0  0  0  0  0  0  0
    3.7264   -2.8048    0.0000 C   0  0  0  0  0  0  0  0  0  0  0  0
    2.2315   -2.9278    0.0000 C   0  0  0  0  0  0  0  0  0  0  0  0
    1.3775   -1.6946    0.0000 C   0  0  0  0  0  0  0  0  0  0  0  0
   -0.9715   -0.5845    0.0000 P   0  0  0  0  0  0  0  0  0  0  0  0
   -2.4664   -0.7075    0.0000 C   0  0  0  0  0  0  0  0  0  0  0  0
   -3.3204    0.5257    0.0000 C   0  0  0  0  0  0  0  0  0  0  0  0
   -4.8154    0.4027    0.0000 C   0  0  0  0  0  0  0  0  0  0  0  0
   -5.4563   -0.9535    0.0000 C   0  0  0  0  0  0  0  0  0  0  0  0
   -4.6023   -2.1866    0.0000 C   0  0  0  0  0  0  0  0  0  0  0  0
   -3.1074   -2.0636    0.0000 C   0  0  0  0  0  0  0  0  0  0  0  0
   -0.1175   -1.8176    0.0000 C   0  0  0  0  0  0  0  0  0  0  0  0
   -0.7584   -3.1738    0.0000 C   0  0  0  0  0  0  0  0  0  0  0  0
    0.0956   -4.4070    0.0000 C   0  0  0  0  0  0  0  0  0  0  0  0
    1.5905   -4.2840    0.0000 C   0  0  0  0  0  0  0  0  0  0  0  0
    2.2315   -2.9278    0.0000 C   0  0  0  0  0  0  0  0  0  0  0  0
    1.3775   -1.6946    0.0000 C   0  0  0  0  0  0  0  0  0  0  0  0
  1  2  1  0
  2  3  1  0
  3  4  1  0
  4  5  1  0
  5  6  1  0
  6  7  1  0
  7  8  2  0
  8  9  1  0
  9 10  2  0
 10 11  1  0
 11 12  2  0
  6 13  1  0
 13 14  2  0
 14 15  1  0
 15 16  2  0
 16 17  1  0
 17 18  2  0
  5 19  1  0
 19 20  1  0
 20 21  2  0
 21 22  1  0
 22 23  2  0
 23 24  1  0
 24 25  2  0
 19 26  1  0
 26 27  2  0
 27 28  1  0
 28 29  2  0
 29 30  1  0
 30 31  2  0
 12  7  1  0
 18 13  1  0
 25 20  1  0
 31 26  1  0
M  END
>  <linear_selectivity>  (916) 
65

>  <denticity>  (916) 
2

>  <ligand_class>  (916) 
diphosphine

$$$$
dpppe_110C_toluene
     RDKit          2D

 31 34  0  0  0  0  0  0  0  0999 V2000
   -5.0284    2.9920    0.0000 C   0  0  0  0  0  0  0  0  0  0  0  0
   -3.5335    3.1150    0.0000 C   0  0  0  0  0  0  0  0  0  0  0  0
   -2.6795    1.8818    0.0000 C   0  0  0  0  0  0  0  0  0  0  0  0
   -1.1845    2.0048    0.0000 C   0  0  0  0  0  0  0  0  0  0  0  0
   -0.3305    0.7717    0.0000 C   0  0  0  0  0  0  0  0  0  0  0  0
    1.1644    0.8947    0.0000 P   0  0  0  0  0  0  0  0  0  0  0  0
    1.8054    2.2508    0.0000 C   0  0  0  0  0  0  0  0  0  0  0  0
    0.9514    3.4840    0.0000 C   0  0  0  0  0  0  0  0  0  0  0  0
    1.5923    4.8402    0.0000 C   0  0  0  0  0  0  0  0  0  0  0  0
    3.0873    4.9632    0.0000 C   0  0  0  0  0  0  0  0  0  0  0  0
    3.9413    3.7300    0.0000 C   0  0  0  0  0  0  0  0  0  0  0  0
    3.3003    2.3738    0.0000 C   0  0  0  0  0  0  0  0  0  0  0  0
    2.0184   -0.3385    0.0000 C   0  0  0  0  0  0  0  0  0  0  0  0
    3.5134   -0.2155    0.0000 C   0  0  0  0  0  0  0  0  0  0  0  0
    4.3674   -1.4486    0.0000 C   0  0  0  0  0  0  0  0  0  0  0  0
    3.7264   -2.8048    0.0000 C   0  0  0  0  0  0  0  0  0  0  0  0
    2.2315   -2.9278    0.0000 C   0  0  0  0  0  0  0  0  0  0  0  0
    1.3775   -1.6946    0.0000 C   0  0  0  0  0  0  0  0  0  0  0  0
   -0.9715   -0.5845    0.0000 P   0  0  0  0  0  0  0  0  0  0  0  0
   -2.4664   -0.7075    0.0000 C   0  0  0  0  0  0  0  0  0  0  0  0
   -3.3204    0.5257    0.0000 C   0  0  0  0  0  0  0  0  0  0  0  0
   -4.8154    0.4027    0.0000 C   0  0  0  0  0  0  0  0  0  0  0  0
   -5.4563   -0.9535    0.0000 C   0  0  0  0  0  0  0  0  0  0  0  0
   -4.6023   -2.1866    0.0000 C   0  0  0  0  0  0  0  0  0  0  0  0
   -3.1074   -2.0636    0.0000 C   0  0  0  0  0  0  0  0  0  0  0  0
   -0.1175   -1.8176    0.0000 C   0  0  0  0  0  0  0  0  0  0  0  0
   -0.7584   -3.1738    0.0000 C   0  0  0  0  0  0  0  0  0  0  0  0
    0.0956   -4.4070    0.0000 C   0  0  0  0  0  0  0  0  0  0  0  0
    1.5905   -4.2840    0.0000 C   0  0  0  0  0  0  0  0  0  0  0  0
    2.2315   -2.9278    0.0000 C   0  0  0  0  0  0  0  0  0  0  0  0
    1.3775   -1.6946    0.0000 C   0  0  0  0  0  0  0  0  0  0  0  0
  1  2  1  0
  2  3  1  0
  3  4  1  0
  4  5  1  0
  5  6  1  0
  6  7  1  0
  7  8  2  0
  8  9  1  0
  9 10  2  0
 10 11  1  0
 11 12  2  0
  6 13  1  0
 13 14  2  0
 14 15  1  0
 15 16  2  0
 16 17  1  0
 17 18  2  0
  5 19  1  0
 19 20  1  0
 20 21  2  0
 21 22  1  0
 22 23  2  0
 23 24  1  0
 24 25  2  0
 19 26  1  0
 26 27  2  0
 27 28  1  0
 28 29  2  0
 29 30  1  0
 30 31  2  0
 12  7  1  0
 18 13  1  0
 25 20  1  0
 31 26  1  0
M  END
>  <linear_selectivity>  (917) 
62

>  <denticity>  (917) 
2

>  <ligand_class>  (917) 
diphosphine

$$$$
dpppe_110C_dioxane
     RDKit          2D

 31 34  0  0  0  0  0  0  0  0999 V2000
   -5.0284    2.9920    0.0000 C   0  0  0  0  0  0  0  0  0  0  0  0
   -3.5335    3.1150    0.0000 C   0  0  0  0  0  0  0  0  0  0  0  0
   -2.6795    1.8818    0.0000 C   0  0  0  0  0  0  0  0  0  0  0  0
   -1.1845    2.0048    0.0000 C   0  0  0  0  0  0  0  0  0  0  0  0
   -0.3305    0.7717    0.0000 C   0  0  0  0  0  0  0  0  0  0  0  0
    1.1644    0.8947    0.0000 P   0  0  0  0  0  0  0  0  0  0  0  0
    1.8054    2.2508    0.0000 C   0  0  0  0  0  0  0  0  0  0  0  0
    0.9514    3.4840    0.0000 C   0  0  0  0  0  0  0  0  0  0  0  0
    1.5923    4.8402    0.0000 C   0  0  0  0  0  0  0  0  0  0  0  0
    3.0873    4.9632    0.0000 C   0  0  0  0  0  0  0  0  0  0  0  0
    3.9413    3.7300    0.0000 C   0  0  0  0  0  0  0  0  0  0  0  0
    3.3003    2.3738    0.0000 C   0  0  0  0  0  0  0  0  0  0  0  0
    2.0184   -0.3385    0.0000 C   0  0  0  0  0  0  0  0  0  0  0  0
    3.5134   -0.2155    0.0000 C   0  0  0  0  0  0  0  0  0  0  0  0
    4.3674   -1.4486    0.0000 C   0  0  0  0  0  0  0  0  0  0  0  0
    3.7264   -2.8048    0.0000 C   0  0  0  0  0  0  0  0  0  0  0  0
    2.2315   -2.9278    0.0000 C   0  0  0  0  0  0  0  0  0  0  0  0
    1.3775   -1.6946    0.0000 C   0  0  0  0  0  0  0  0  0  0  0  0
   -0.9715   -0.5845    0.0000 P   0  0  0  0  0  0  0  0  0  0  0  0
   -2.4664   -0.7075    0.0000 C   0  0  0  0  0  0  0  0  0  0  0  0
   -3.3204    0.5257    0.0000 C   0  0  0  0  0  0  0  0  0  0  0  0
   -4.8154    0.4027    0.0000 C   0  0  0  0  0  0  0  0  0  0  0  0
   -5.4563   -0.9535    0.0000 C   0  0  0  0  0  0  0  0  0  0  0  0
   -4.6023   -2.1866    0.0000 C   0  0  0  0  0  0  0  0  0  0  0  0
   -3.1074   -2.0636    0.0000 C   0  0  0  0  0  0  0  0  0  0  0  0
   -0.1175   -1.8176    0.0000 C   0  0  0  0  0  0  0  0  0  0  0  0
   -0.7584   -3.1738    0.0000 C   0  0  0  0  0  0  0  0  0  0  0  0
    0.0956   -4.4070    0.0000 C   0  0  0  0  0  0  0  0  0  0  0  0
    1.5905   -4.2840    0.0000 C   0  0  0  0  0  0  0  0  0  0  0  0
    2.2315   -2.9278    0.0000 C   0  0  0  0  0  0  0  0  0  0  0  0
    1.3775   -1.6946    0.0000 C   0  0  0  0  0  0  0  0  0  0  0  0
  1  2  1  0
  2  3  1  0
  3  4  1  0
  4  5  1  0
  5  6  1  0
  6  7  1  0
  7  8  2  0
  8  9  1  0
  9 10  2  0
 10 11  1  0
 11 12  2  0
  6 13  1  0
 13 14  2  0
 14 15  1  0
 15 16  2  0
 16 17  1  0
 17 18  2  0
  5 19  1  0
 19 20  1  0
 20 21  2  0
 21 22  1  0
 22 23  2  0
 23 24  1  0
 24 25  2  0
 19 26  1  0
 26 27  2  0
 27 28  1  0
 28 29  2  0
 29 30  1  0
 30 31  2  0
 12  7  1  0
 18 13  1  0
 25 20  1  0
 31 26  1  0
M  END
>  <linear_selectivity>  (918) 
63

>  <denticity>  (918) 
2

>  <ligand_class>  (918) 
diphosphine

$$$$
dpppe_110C_hexane
     RDKit          2D

 31 34  0  0  0  0  0  0  0  0999 V2000
   -5.0284    2.9920    0.0000 C   0  0  0  0  0  0  0  0  0  0  0  0
   -3.5335    3.1150    0.0000 C   0  0  0  0  0  0  0  0  0  0  0  0
   -2.6795    1.8818    0.0000 C   0  0  0  0  0  0  0  0  0  0  0  0
   -1.1845    2.0048    0.0000 C   0  0  0  0  0  0  0  0  0  0  0  0
   -0.3305    0.7717    0.0000 C   0  0  0  0  0  0  0  0  0  0  0  0
    1.1644    0.8947    0.0000 P   0  0  0  0  0  0  0  0  0  0  0  0
    1.8054    2.2508    0.0000 C   0  0  0  0  0  0  0  0  0  0  0  0
    0.9514    3.4840    0.0000 C   0  0  0  0  0  0  0  0  0  0  0  0
    1.5923    4.8402    0.0000 C   0  0  0  0  0  0  0  0  0  0  0  0
    3.0873    4.9632    0.0000 C   0  0  0  0  0  0  0  0  0  0  0  0
    3.9413    3.7300    0.0000 C   0  0  0  0  0  0  0  0  0  0  0  0
    3.3003    2.3738    0.0000 C   0  0  0  0  0  0  0  0  0  0  0  0
    2.0184   -0.3385    0.0000 C   0  0  0  0  0  0  0  0  0  0  0  0
    3.5134   -0.2155    0.0000 C   0  0  0  0  0  0  0  0  0  0  0  0
    4.3674   -1.4486    0.0000 C   0  0  0  0  0  0  0  0  0  0  0  0
    3.7264   -2.8048    0.0000 C   0  0  0  0  0  0  0  0  0  0  0  0
    2.2315   -2.9278    0.0000 C   0  0  0  0  0  0  0  0  0  0  0  0
    1.3775   -1.6946    0.0000 C   0  0  0  0  0  0  0  0  0  0  0  0
   -0.9715   -0.5845    0.0000 P   0  0  0  0  0  0  0  0  0  0  0  0
   -2.4664   -0.7075    0.0000 C   0  0  0  0  0  0  0  0  0  0  0  0
   -3.3204    0.5257    0.0000 C   0  0  0  0  0  0  0  0  0  0  0  0
   -4.8154    0.4027    0.0000 C   0  0  0  0  0  0  0  0  0  0  0  0
   -5.4563   -0.9535    0.0000 C   0  0  0  0  0  0  0  0  0  0  0  0
   -4.6023   -2.1866    0.0000 C   0  0  0  0  0  0  0  0  0  0  0  0
   -3.1074   -2.0636    0.0000 C   0  0  0  0  0  0  0  0  0  0  0  0
   -0.1175   -1.8176    0.0000 C   0  0  0  0  0  0  0  0  0  0  0  0
   -0.7584   -3.1738    0.0000 C   0  0  0  0  0  0  0  0  0  0  0  0
    0.0956   -4.4070    0.0000 C   0  0  0  0  0  0  0  0  0  0  0  0
    1.5905   -4.2840    0.0000 C   0  0  0  0  0  0  0  0  0  0  0  0
    2.2315   -2.9278    0.0000 C   0  0  0  0  0  0  0  0  0  0  0  0
    1.3775   -1.6946    0.0000 C   0  0  0  0  0  0  0  0  0  0  0  0
  1  2  1  0
  2  3  1  0
  3  4  1  0
  4  5  1  0
  5  6  1  0
  6  7  1  0
  7  8  2  0
  8  9  1  0
  9 10  2  0
 10 11  1  0
 11 12  2  0
  6 13  1  0
 13 14  2  0
 14 15  1  0
 15 16  2  0
 16 17  1  0
 17 18  2  0
  5 19  1  0
 19 20  1  0
 20 21  2  0
 21 22  1  0
 22 23  2  0
 23 24  1  0
 24 25  2  0
 19 26  1  0
 26 27  2  0
 27 28  1  0
 28 29  2  0
 29 30  1  0
 30 31  2  0
 12  7  1  0
 18 13  1  0
 25 20  1  0
 31 26  1  0
M  END
>  <linear_selectivity>  (919) 
63

>  <denticity>  (919) 
2

>  <ligand_class>  (919) 
diphosphine

$$$$
dpppe_110C_benzene
     RDKit          2D

 31 34  0  0  0  0  0  0  0  0999 V2000
   -5.0284    2.9920    0.0000 C   0  0  0  0  0  0  0  0  0  0  0  0
   -3.5335    3.1150    0.0000 C   0  0  0  0  0  0  0  0  0  0  0  0
   -2.6795    1.8818    0.0000 C   0  0  0  0  0  0  0  0  0  0  0  0
   -1.1845    2.0048    0.0000 C   0  0  0  0  0  0  0  0  0  0  0  0
   -0.3305    0.7717    0.0000 C   0  0  0  0  0  0  0  0  0  0  0  0
    1.1644    0.8947    0.0000 P   0  0  0  0  0  0  0  0  0  0  0  0
    1.8054    2.2508    0.0000 C   0  0  0  0  0  0  0  0  0  0  0  0
    0.9514    3.4840    0.0000 C   0  0  0  0  0  0  0  0  0  0  0  0
    1.5923    4.8402    0.0000 C   0  0  0  0  0  0  0  0  0  0  0  0
    3.0873    4.9632    0.0000 C   0  0  0  0  0  0  0  0  0  0  0  0
    3.9413    3.7300    0.0000 C   0  0  0  0  0  0  0  0  0  0  0  0
    3.3003    2.3738    0.0000 C   0  0  0  0  0  0  0  0  0  0  0  0
    2.0184   -0.3385    0.0000 C   0  0  0  0  0  0  0  0  0  0  0  0
    3.5134   -0.2155    0.0000 C   0  0  0  0  0  0  0  0  0  0  0  0
    4.3674   -1.4486    0.0000 C   0  0  0  0  0  0  0  0  0  0  0  0
    3.7264   -2.8048    0.0000 C   0  0  0  0  0  0  0  0  0  0  0  0
    2.2315   -2.9278    0.0000 C   0  0  0  0  0  0  0  0  0  0  0  0
    1.3775   -1.6946    0.0000 C   0  0  0  0  0  0  0  0  0  0  0  0
   -0.9715   -0.5845    0.0000 P   0  0  0  0  0  0  0  0  0  0  0  0
   -2.4664   -0.7075    0.0000 C   0  0  0  0  0  0  0  0  0  0  0  0
   -3.3204    0.5257    0.0000 C   0  0  0  0  0  0  0  0  0  0  0  0
   -4.8154    0.4027    0.0000 C   0  0  0  0  0  0  0  0  0  0  0  0
   -5.4563   -0.9535    0.0000 C   0  0  0  0  0  0  0  0  0  0  0  0
   -4.6023   -2.1866    0.0000 C   0  0  0  0  0  0  0  0  0  0  0  0
   -3.1074   -2.0636    0.0000 C   0  0  0  0  0  0  0  0  0  0  0  0
   -0.1175   -1.8176    0.0000 C   0  0  0  0  0  0  0  0  0  0  0  0
   -0.7584   -3.1738    0.0000 C   0  0  0  0  0  0  0  0  0  0  0  0
    0.0956   -4.4070    0.0000 C   0  0  0  0  0  0  0  0  0  0  0  0
    1.5905   -4.2840    0.0000 C   0  0  0  0  0  0  0  0  0  0  0  0
    2.2315   -2.9278    0.0000 C   0  0  0  0  0  0  0  0  0  0  0  0
    1.3775   -1.6946    0.0000 C   0  0  0  0  0  0  0  0  0  0  0  0
  1  2  1  0
  2  3  1  0
  3  4  1  0
  4  5  1  0
  5  6  1  0
  6  7  1  0
  7  8  2  0
  8  9  1  0
  9 10  2  0
 10 11  1  0
 11 12  2  0
  6 13  1  0
 13 14  2  0
 14 15  1  0
 15 16  2  0
 16 17  1  0
 17 18  2  0
  5 19  1  0
 19 20  1  0
 20 21  2  0
 21 22  1  0
 22 23  2  0
 23 24  1  0
 24 25  2  0
 19 26  1  0
 26 27  2  0
 27 28  1  0
 28 29  2  0
 29 30  1  0
 30 31  2  0
 12  7  1  0
 18 13  1  0
 25 20  1  0
 31 26  1  0
M  END
>  <linear_selectivity>  (920) 
63

>  <denticity>  (920) 
2

>  <ligand_class>  (920) 
diphosphine

$$$$
dpppe_120C_toluene
     RDKit          2D

 31 34  0  0  0  0  0  0  0  0999 V2000
   -5.0284    2.9920    0.0000 C   0  0  0  0  0  0  0  0  0  0  0  0
   -3.5335    3.1150    0.0000 C   0  0  0  0  0  0  0  0  0  0  0  0
   -2.6795    1.8818    0.0000 C   0  0  0  0  0  0  0  0  0  0  0  0
   -1.1845    2.0048    0.0000 C   0  0  0  0  0  0  0  0  0  0  0  0
   -0.3305    0.7717    0.0000 C   0  0  0  0  0  0  0  0  0  0  0  0
    1.1644    0.8947    0.0000 P   0  0  0  0  0  0  0  0  0  0  0  0
    1.8054    2.2508    0.0000 C   0  0  0  0  0  0  0  0  0  0  0  0
    0.9514    3.4840    0.0000 C   0  0  0  0  0  0  0  0  0  0  0  0
    1.5923    4.8402    0.0000 C   0  0  0  0  0  0  0  0  0  0  0  0
    3.0873    4.9632    0.0000 C   0  0  0  0  0  0  0  0  0  0  0  0
    3.9413    3.7300    0.0000 C   0  0  0  0  0  0  0  0  0  0  0  0
    3.3003    2.3738    0.0000 C   0  0  0  0  0  0  0  0  0  0  0  0
    2.0184   -0.3385    0.0000 C   0  0  0  0  0  0  0  0  0  0  0  0
    3.5134   -0.2155    0.0000 C   0  0  0  0  0  0  0  0  0  0  0  0
    4.3674   -1.4486    0.0000 C   0  0  0  0  0  0  0  0  0  0  0  0
    3.7264   -2.8048    0.0000 C   0  0  0  0  0  0  0  0  0  0  0  0
    2.2315   -2.9278    0.0000 C   0  0  0  0  0  0  0  0  0  0  0  0
    1.3775   -1.6946    0.0000 C   0  0  0  0  0  0  0  0  0  0  0  0
   -0.9715   -0.5845    0.0000 P   0  0  0  0  0  0  0  0  0  0  0  0
   -2.4664   -0.7075    0.0000 C   0  0  0  0  0  0  0  0  0  0  0  0
   -3.3204    0.5257    0.0000 C   0  0  0  0  0  0  0  0  0  0  0  0
   -4.8154    0.4027    0.0000 C   0  0  0  0  0  0  0  0  0  0  0  0
   -5.4563   -0.9535    0.0000 C   0  0  0  0  0  0  0  0  0  0  0  0
   -4.6023   -2.1866    0.0000 C   0  0  0  0  0  0  0  0  0  0  0  0
   -3.1074   -2.0636    0.0000 C   0  0  0  0  0  0  0  0  0  0  0  0
   -0.1175   -1.8176    0.0000 C   0  0  0  0  0  0  0  0  0  0  0  0
   -0.7584   -3.1738    0.0000 C   0  0  0  0  0  0  0  0  0  0  0  0
    0.0956   -4.4070    0.0000 C   0  0  0  0  0  0  0  0  0  0  0  0
    1.5905   -4.2840    0.0000 C   0  0  0  0  0  0  0  0  0  0  0  0
    2.2315   -2.9278    0.0000 C   0  0  0  0  0  0  0  0  0  0  0  0
    1.3775   -1.6946    0.0000 C   0  0  0  0  0  0  0  0  0  0  0  0
  1  2  1  0
  2  3  1  0
  3  4  1  0
  4  5  1  0
  5  6  1  0
  6  7  1  0
  7  8  2  0
  8  9  1  0
  9 10  2  0
 10 11  1  0
 11 12  2  0
  6 13  1  0
 13 14  2  0
 14 15  1  0
 15 16  2  0
 16 17  1  0
 17 18  2  0
  5 19  1  0
 19 20  1  0
 20 21  2  0
 21 22  1  0
 22 23  2  0
 23 24  1  0
 24 25  2  0
 19 26  1  0
 26 27  2  0
 27 28  1  0
 28 29  2  0
 29 30  1  0
 30 31  2  0
 12  7  1  0
 18 13  1  0
 25 20  1  0
 31 26  1  0
M  END
>  <linear_selectivity>  (921) 
61

>  <denticity>  (921) 
2

>  <ligand_class>  (921) 
diphosphine

$$$$
dpppe_120C_THF
     RDKit          2D

 31 34  0  0  0  0  0  0  0  0999 V2000
   -5.0284    2.9920    0.0000 C   0  0  0  0  0  0  0  0  0  0  0  0
   -3.5335    3.1150    0.0000 C   0  0  0  0  0  0  0  0  0  0  0  0
   -2.6795    1.8818    0.0000 C   0  0  0  0  0  0  0  0  0  0  0  0
   -1.1845    2.0048    0.0000 C   0  0  0  0  0  0  0  0  0  0  0  0
   -0.3305    0.7717    0.0000 C   0  0  0  0  0  0  0  0  0  0  0  0
    1.1644    0.8947    0.0000 P   0  0  0  0  0  0  0  0  0  0  0  0
    1.8054    2.2508    0.0000 C   0  0  0  0  0  0  0  0  0  0  0  0
    0.9514    3.4840    0.0000 C   0  0  0  0  0  0  0  0  0  0  0  0
    1.5923    4.8402    0.0000 C   0  0  0  0  0  0  0  0  0  0  0  0
    3.0873    4.9632    0.0000 C   0  0  0  0  0  0  0  0  0  0  0  0
    3.9413    3.7300    0.0000 C   0  0  0  0  0  0  0  0  0  0  0  0
    3.3003    2.3738    0.0000 C   0  0  0  0  0  0  0  0  0  0  0  0
    2.0184   -0.3385    0.0000 C   0  0  0  0  0  0  0  0  0  0  0  0
    3.5134   -0.2155    0.0000 C   0  0  0  0  0  0  0  0  0  0  0  0
    4.3674   -1.4486    0.0000 C   0  0  0  0  0  0  0  0  0  0  0  0
    3.7264   -2.8048    0.0000 C   0  0  0  0  0  0  0  0  0  0  0  0
    2.2315   -2.9278    0.0000 C   0  0  0  0  0  0  0  0  0  0  0  0
    1.3775   -1.6946    0.0000 C   0  0  0  0  0  0  0  0  0  0  0  0
   -0.9715   -0.5845    0.0000 P   0  0  0  0  0  0  0  0  0  0  0  0
   -2.4664   -0.7075    0.0000 C   0  0  0  0  0  0  0  0  0  0  0  0
   -3.3204    0.5257    0.0000 C   0  0  0  0  0  0  0  0  0  0  0  0
   -4.8154    0.4027    0.0000 C   0  0  0  0  0  0  0  0  0  0  0  0
   -5.4563   -0.9535    0.0000 C   0  0  0  0  0  0  0  0  0  0  0  0
   -4.6023   -2.1866    0.0000 C   0  0  0  0  0  0  0  0  0  0  0  0
   -3.1074   -2.0636    0.0000 C   0  0  0  0  0  0  0  0  0  0  0  0
   -0.1175   -1.8176    0.0000 C   0  0  0  0  0  0  0  0  0  0  0  0
   -0.7584   -3.1738    0.0000 C   0  0  0  0  0  0  0  0  0  0  0  0
    0.0956   -4.4070    0.0000 C   0  0  0  0  0  0  0  0  0  0  0  0
    1.5905   -4.2840    0.0000 C   0  0  0  0  0  0  0  0  0  0  0  0
    2.2315   -2.9278    0.0000 C   0  0  0  0  0  0  0  0  0  0  0  0
    1.3775   -1.6946    0.0000 C   0  0  0  0  0  0  0  0  0  0  0  0
  1  2  1  0
  2  3  1  0
  3  4  1  0
  4  5  1  0
  5  6  1  0
  6  7  1  0
  7  8  2  0
  8  9  1  0
  9 10  2  0
 10 11  1  0
 11 12  2  0
  6 13  1  0
 13 14  2  0
 14 15  1  0
 15 16  2  0
 16 17  1  0
 17 18  2  0
  5 19  1  0
 19 20  1  0
 20 21  2  0
 21 22  1  0
 22 23  2  0
 23 24  1  0
 24 25  2  0
 19 26  1  0
 26 27  2  0
 27 28  1  0
 28 29  2  0
 29 30  1  0
 30 31  2  0
 12  7  1  0
 18 13  1  0
 25 20  1  0
 31 26  1  0
M  END
>  <linear_selectivity>  (922) 
55

>  <denticity>  (922) 
2

>  <ligand_class>  (922) 
diphosphine

$$$$
dpppe_120C_dioxane
     RDKit          2D

 31 34  0  0  0  0  0  0  0  0999 V2000
   -5.0284    2.9920    0.0000 C   0  0  0  0  0  0  0  0  0  0  0  0
   -3.5335    3.1150    0.0000 C   0  0  0  0  0  0  0  0  0  0  0  0
   -2.6795    1.8818    0.0000 C   0  0  0  0  0  0  0  0  0  0  0  0
   -1.1845    2.0048    0.0000 C   0  0  0  0  0  0  0  0  0  0  0  0
   -0.3305    0.7717    0.0000 C   0  0  0  0  0  0  0  0  0  0  0  0
    1.1644    0.8947    0.0000 P   0  0  0  0  0  0  0  0  0  0  0  0
    1.8054    2.2508    0.0000 C   0  0  0  0  0  0  0  0  0  0  0  0
    0.9514    3.4840    0.0000 C   0  0  0  0  0  0  0  0  0  0  0  0
    1.5923    4.8402    0.0000 C   0  0  0  0  0  0  0  0  0  0  0  0
    3.0873    4.9632    0.0000 C   0  0  0  0  0  0  0  0  0  0  0  0
    3.9413    3.7300    0.0000 C   0  0  0  0  0  0  0  0  0  0  0  0
    3.3003    2.3738    0.0000 C   0  0  0  0  0  0  0  0  0  0  0  0
    2.0184   -0.3385    0.0000 C   0  0  0  0  0  0  0  0  0  0  0  0
    3.5134   -0.2155    0.0000 C   0  0  0  0  0  0  0  0  0  0  0  0
    4.3674   -1.4486    0.0000 C   0  0  0  0  0  0  0  0  0  0  0  0
    3.7264   -2.8048    0.0000 C   0  0  0  0  0  0  0  0  0  0  0  0
    2.2315   -2.9278    0.0000 C   0  0  0  0  0  0  0  0  0  0  0  0
    1.3775   -1.6946    0.0000 C   0  0  0  0  0  0  0  0  0  0  0  0
   -0.9715   -0.5845    0.0000 P   0  0  0  0  0  0  0  0  0  0  0  0
   -2.4664   -0.7075    0.0000 C   0  0  0  0  0  0  0  0  0  0  0  0
   -3.3204    0.5257    0.0000 C   0  0  0  0  0  0  0  0  0  0  0  0
   -4.8154    0.4027    0.0000 C   0  0  0  0  0  0  0  0  0  0  0  0
   -5.4563   -0.9535    0.0000 C   0  0  0  0  0  0  0  0  0  0  0  0
   -4.6023   -2.1866    0.0000 C   0  0  0  0  0  0  0  0  0  0  0  0
   -3.1074   -2.0636    0.0000 C   0  0  0  0  0  0  0  0  0  0  0  0
   -0.1175   -1.8176    0.0000 C   0  0  0  0  0  0  0  0  0  0  0  0
   -0.7584   -3.1738    0.0000 C   0  0  0  0  0  0  0  0  0  0  0  0
    0.0956   -4.4070    0.0000 C   0  0  0  0  0  0  0  0  0  0  0  0
    1.5905   -4.2840    0.0000 C   0  0  0  0  0  0  0  0  0  0  0  0
    2.2315   -2.9278    0.0000 C   0  0  0  0  0  0  0  0  0  0  0  0
    1.3775   -1.6946    0.0000 C   0  0  0  0  0  0  0  0  0  0  0  0
  1  2  1  0
  2  3  1  0
  3  4  1  0
  4  5  1  0
  5  6  1  0
  6  7  1  0
  7  8  2  0
  8  9  1  0
  9 10  2  0
 10 11  1  0
 11 12  2  0
  6 13  1  0
 13 14  2  0
 14 15  1  0
 15 16  2  0
 16 17  1  0
 17 18  2  0
  5 19  1  0
 19 20  1  0
 20 21  2  0
 21 22  1  0
 22 23  2  0
 23 24  1  0
 24 25  2  0
 19 26  1  0
 26 27  2  0
 27 28  1  0
 28 29  2  0
 29 30  1  0
 30 31  2  0
 12  7  1  0
 18 13  1  0
 25 20  1  0
 31 26  1  0
M  END
>  <linear_selectivity>  (923) 
62

>  <denticity>  (923) 
2

>  <ligand_class>  (923) 
diphosphine

$$$$
dpppe_120C_benzene
     RDKit          2D

 31 34  0  0  0  0  0  0  0  0999 V2000
   -5.0284    2.9920    0.0000 C   0  0  0  0  0  0  0  0  0  0  0  0
   -3.5335    3.1150    0.0000 C   0  0  0  0  0  0  0  0  0  0  0  0
   -2.6795    1.8818    0.0000 C   0  0  0  0  0  0  0  0  0  0  0  0
   -1.1845    2.0048    0.0000 C   0  0  0  0  0  0  0  0  0  0  0  0
   -0.3305    0.7717    0.0000 C   0  0  0  0  0  0  0  0  0  0  0  0
    1.1644    0.8947    0.0000 P   0  0  0  0  0  0  0  0  0  0  0  0
    1.8054    2.2508    0.0000 C   0  0  0  0  0  0  0  0  0  0  0  0
    0.9514    3.4840    0.0000 C   0  0  0  0  0  0  0  0  0  0  0  0
    1.5923    4.8402    0.0000 C   0  0  0  0  0  0  0  0  0  0  0  0
    3.0873    4.9632    0.0000 C   0  0  0  0  0  0  0  0  0  0  0  0
    3.9413    3.7300    0.0000 C   0  0  0  0  0  0  0  0  0  0  0  0
    3.3003    2.3738    0.0000 C   0  0  0  0  0  0  0  0  0  0  0  0
    2.0184   -0.3385    0.0000 C   0  0  0  0  0  0  0  0  0  0  0  0
    3.5134   -0.2155    0.0000 C   0  0  0  0  0  0  0  0  0  0  0  0
    4.3674   -1.4486    0.0000 C   0  0  0  0  0  0  0  0  0  0  0  0
    3.7264   -2.8048    0.0000 C   0  0  0  0  0  0  0  0  0  0  0  0
    2.2315   -2.9278    0.0000 C   0  0  0  0  0  0  0  0  0  0  0  0
    1.3775   -1.6946    0.0000 C   0  0  0  0  0  0  0  0  0  0  0  0
   -0.9715   -0.5845    0.0000 P   0  0  0  0  0  0  0  0  0  0  0  0
   -2.4664   -0.7075    0.0000 C   0  0  0  0  0  0  0  0  0  0  0  0
   -3.3204    0.5257    0.0000 C   0  0  0  0  0  0  0  0  0  0  0  0
   -4.8154    0.4027    0.0000 C   0  0  0  0  0  0  0  0  0  0  0  0
   -5.4563   -0.9535    0.0000 C   0  0  0  0  0  0  0  0  0  0  0  0
   -4.6023   -2.1866    0.0000 C   0  0  0  0  0  0  0  0  0  0  0  0
   -3.1074   -2.0636    0.0000 C   0  0  0  0  0  0  0  0  0  0  0  0
   -0.1175   -1.8176    0.0000 C   0  0  0  0  0  0  0  0  0  0  0  0
   -0.7584   -3.1738    0.0000 C   0  0  0  0  0  0  0  0  0  0  0  0
    0.0956   -4.4070    0.0000 C   0  0  0  0  0  0  0  0  0  0  0  0
    1.5905   -4.2840    0.0000 C   0  0  0  0  0  0  0  0  0  0  0  0
    2.2315   -2.9278    0.0000 C   0  0  0  0  0  0  0  0  0  0  0  0
    1.3775   -1.6946    0.0000 C   0  0  0  0  0  0  0  0  0  0  0  0
  1  2  1  0
  2  3  1  0
  3  4  1  0
  4  5  1  0
  5  6  1  0
  6  7  1  0
  7  8  2  0
  8  9  1  0
  9 10  2  0
 10 11  1  0
 11 12  2  0
  6 13  1  0
 13 14  2  0
 14 15  1  0
 15 16  2  0
 16 17  1  0
 17 18  2  0
  5 19  1  0
 19 20  1  0
 20 21  2  0
 21 22  1  0
 22 23  2  0
 23 24  1  0
 24 25  2  0
 19 26  1  0
 26 27  2  0
 27 28  1  0
 28 29  2  0
 29 30  1  0
 30 31  2  0
 12  7  1  0
 18 13  1  0
 25 20  1  0
 31 26  1  0
M  END
>  <linear_selectivity>  (924) 
61

>  <denticity>  (924) 
2

>  <ligand_class>  (924) 
diphosphine

$$$$
dpppe_120C_xylene
     RDKit          2D

 31 34  0  0  0  0  0  0  0  0999 V2000
   -5.0284    2.9920    0.0000 C   0  0  0  0  0  0  0  0  0  0  0  0
   -3.5335    3.1150    0.0000 C   0  0  0  0  0  0  0  0  0  0  0  0
   -2.6795    1.8818    0.0000 C   0  0  0  0  0  0  0  0  0  0  0  0
   -1.1845    2.0048    0.0000 C   0  0  0  0  0  0  0  0  0  0  0  0
   -0.3305    0.7717    0.0000 C   0  0  0  0  0  0  0  0  0  0  0  0
    1.1644    0.8947    0.0000 P   0  0  0  0  0  0  0  0  0  0  0  0
    1.8054    2.2508    0.0000 C   0  0  0  0  0  0  0  0  0  0  0  0
    0.9514    3.4840    0.0000 C   0  0  0  0  0  0  0  0  0  0  0  0
    1.5923    4.8402    0.0000 C   0  0  0  0  0  0  0  0  0  0  0  0
    3.0873    4.9632    0.0000 C   0  0  0  0  0  0  0  0  0  0  0  0
    3.9413    3.7300    0.0000 C   0  0  0  0  0  0  0  0  0  0  0  0
    3.3003    2.3738    0.0000 C   0  0  0  0  0  0  0  0  0  0  0  0
    2.0184   -0.3385    0.0000 C   0  0  0  0  0  0  0  0  0  0  0  0
    3.5134   -0.2155    0.0000 C   0  0  0  0  0  0  0  0  0  0  0  0
    4.3674   -1.4486    0.0000 C   0  0  0  0  0  0  0  0  0  0  0  0
    3.7264   -2.8048    0.0000 C   0  0  0  0  0  0  0  0  0  0  0  0
    2.2315   -2.9278    0.0000 C   0  0  0  0  0  0  0  0  0  0  0  0
    1.3775   -1.6946    0.0000 C   0  0  0  0  0  0  0  0  0  0  0  0
   -0.9715   -0.5845    0.0000 P   0  0  0  0  0  0  0  0  0  0  0  0
   -2.4664   -0.7075    0.0000 C   0  0  0  0  0  0  0  0  0  0  0  0
   -3.3204    0.5257    0.0000 C   0  0  0  0  0  0  0  0  0  0  0  0
   -4.8154    0.4027    0.0000 C   0  0  0  0  0  0  0  0  0  0  0  0
   -5.4563   -0.9535    0.0000 C   0  0  0  0  0  0  0  0  0  0  0  0
   -4.6023   -2.1866    0.0000 C   0  0  0  0  0  0  0  0  0  0  0  0
   -3.1074   -2.0636    0.0000 C   0  0  0  0  0  0  0  0  0  0  0  0
   -0.1175   -1.8176    0.0000 C   0  0  0  0  0  0  0  0  0  0  0  0
   -0.7584   -3.1738    0.0000 C   0  0  0  0  0  0  0  0  0  0  0  0
    0.0956   -4.4070    0.0000 C   0  0  0  0  0  0  0  0  0  0  0  0
    1.5905   -4.2840    0.0000 C   0  0  0  0  0  0  0  0  0  0  0  0
    2.2315   -2.9278    0.0000 C   0  0  0  0  0  0  0  0  0  0  0  0
    1.3775   -1.6946    0.0000 C   0  0  0  0  0  0  0  0  0  0  0  0
  1  2  1  0
  2  3  1  0
  3  4  1  0
  4  5  1  0
  5  6  1  0
  6  7  1  0
  7  8  2  0
  8  9  1  0
  9 10  2  0
 10 11  1  0
 11 12  2  0
  6 13  1  0
 13 14  2  0
 14 15  1  0
 15 16  2  0
 16 17  1  0
 17 18  2  0
  5 19  1  0
 19 20  1  0
 20 21  2  0
 21 22  1  0
 22 23  2  0
 23 24  1  0
 24 25  2  0
 19 26  1  0
 26 27  2  0
 27 28  1  0
 28 29  2  0
 29 30  1  0
 30 31  2  0
 12  7  1  0
 18 13  1  0
 25 20  1  0
 31 26  1  0
M  END
>  <linear_selectivity>  (925) 
64

>  <denticity>  (925) 
2

>  <ligand_class>  (925) 
diphosphine

$$$$
dpppe_130C_toluene
     RDKit          2D

 31 34  0  0  0  0  0  0  0  0999 V2000
   -5.0284    2.9920    0.0000 C   0  0  0  0  0  0  0  0  0  0  0  0
   -3.5335    3.1150    0.0000 C   0  0  0  0  0  0  0  0  0  0  0  0
   -2.6795    1.8818    0.0000 C   0  0  0  0  0  0  0  0  0  0  0  0
   -1.1845    2.0048    0.0000 C   0  0  0  0  0  0  0  0  0  0  0  0
   -0.3305    0.7717    0.0000 C   0  0  0  0  0  0  0  0  0  0  0  0
    1.1644    0.8947    0.0000 P   0  0  0  0  0  0  0  0  0  0  0  0
    1.8054    2.2508    0.0000 C   0  0  0  0  0  0  0  0  0  0  0  0
    0.9514    3.4840    0.0000 C   0  0  0  0  0  0  0  0  0  0  0  0
    1.5923    4.8402    0.0000 C   0  0  0  0  0  0  0  0  0  0  0  0
    3.0873    4.9632    0.0000 C   0  0  0  0  0  0  0  0  0  0  0  0
    3.9413    3.7300    0.0000 C   0  0  0  0  0  0  0  0  0  0  0  0
    3.3003    2.3738    0.0000 C   0  0  0  0  0  0  0  0  0  0  0  0
    2.0184   -0.3385    0.0000 C   0  0  0  0  0  0  0  0  0  0  0  0
    3.5134   -0.2155    0.0000 C   0  0  0  0  0  0  0  0  0  0  0  0
    4.3674   -1.4486    0.0000 C   0  0  0  0  0  0  0  0  0  0  0  0
    3.7264   -2.8048    0.0000 C   0  0  0  0  0  0  0  0  0  0  0  0
    2.2315   -2.9278    0.0000 C   0  0  0  0  0  0  0  0  0  0  0  0
    1.3775   -1.6946    0.0000 C   0  0  0  0  0  0  0  0  0  0  0  0
   -0.9715   -0.5845    0.0000 P   0  0  0  0  0  0  0  0  0  0  0  0
   -2.4664   -0.7075    0.0000 C   0  0  0  0  0  0  0  0  0  0  0  0
   -3.3204    0.5257    0.0000 C   0  0  0  0  0  0  0  0  0  0  0  0
   -4.8154    0.4027    0.0000 C   0  0  0  0  0  0  0  0  0  0  0  0
   -5.4563   -0.9535    0.0000 C   0  0  0  0  0  0  0  0  0  0  0  0
   -4.6023   -2.1866    0.0000 C   0  0  0  0  0  0  0  0  0  0  0  0
   -3.1074   -2.0636    0.0000 C   0  0  0  0  0  0  0  0  0  0  0  0
   -0.1175   -1.8176    0.0000 C   0  0  0  0  0  0  0  0  0  0  0  0
   -0.7584   -3.1738    0.0000 C   0  0  0  0  0  0  0  0  0  0  0  0
    0.0956   -4.4070    0.0000 C   0  0  0  0  0  0  0  0  0  0  0  0
    1.5905   -4.2840    0.0000 C   0  0  0  0  0  0  0  0  0  0  0  0
    2.2315   -2.9278    0.0000 C   0  0  0  0  0  0  0  0  0  0  0  0
    1.3775   -1.6946    0.0000 C   0  0  0  0  0  0  0  0  0  0  0  0
  1  2  1  0
  2  3  1  0
  3  4  1  0
  4  5  1  0
  5  6  1  0
  6  7  1  0
  7  8  2  0
  8  9  1  0
  9 10  2  0
 10 11  1  0
 11 12  2  0
  6 13  1  0
 13 14  2  0
 14 15  1  0
 15 16  2  0
 16 17  1  0
 17 18  2  0
  5 19  1  0
 19 20  1  0
 20 21  2  0
 21 22  1  0
 22 23  2  0
 23 24  1  0
 24 25  2  0
 19 26  1  0
 26 27  2  0
 27 28  1  0
 28 29  2  0
 29 30  1  0
 30 31  2  0
 12  7  1  0
 18 13  1  0
 25 20  1  0
 31 26  1  0
M  END
>  <linear_selectivity>  (926) 
54

>  <denticity>  (926) 
2

>  <ligand_class>  (926) 
diphosphine

$$$$
dpppe_130C_THF
     RDKit          2D

 31 34  0  0  0  0  0  0  0  0999 V2000
   -5.0284    2.9920    0.0000 C   0  0  0  0  0  0  0  0  0  0  0  0
   -3.5335    3.1150    0.0000 C   0  0  0  0  0  0  0  0  0  0  0  0
   -2.6795    1.8818    0.0000 C   0  0  0  0  0  0  0  0  0  0  0  0
   -1.1845    2.0048    0.0000 C   0  0  0  0  0  0  0  0  0  0  0  0
   -0.3305    0.7717    0.0000 C   0  0  0  0  0  0  0  0  0  0  0  0
    1.1644    0.8947    0.0000 P   0  0  0  0  0  0  0  0  0  0  0  0
    1.8054    2.2508    0.0000 C   0  0  0  0  0  0  0  0  0  0  0  0
    0.9514    3.4840    0.0000 C   0  0  0  0  0  0  0  0  0  0  0  0
    1.5923    4.8402    0.0000 C   0  0  0  0  0  0  0  0  0  0  0  0
    3.0873    4.9632    0.0000 C   0  0  0  0  0  0  0  0  0  0  0  0
    3.9413    3.7300    0.0000 C   0  0  0  0  0  0  0  0  0  0  0  0
    3.3003    2.3738    0.0000 C   0  0  0  0  0  0  0  0  0  0  0  0
    2.0184   -0.3385    0.0000 C   0  0  0  0  0  0  0  0  0  0  0  0
    3.5134   -0.2155    0.0000 C   0  0  0  0  0  0  0  0  0  0  0  0
    4.3674   -1.4486    0.0000 C   0  0  0  0  0  0  0  0  0  0  0  0
    3.7264   -2.8048    0.0000 C   0  0  0  0  0  0  0  0  0  0  0  0
    2.2315   -2.9278    0.0000 C   0  0  0  0  0  0  0  0  0  0  0  0
    1.3775   -1.6946    0.0000 C   0  0  0  0  0  0  0  0  0  0  0  0
   -0.9715   -0.5845    0.0000 P   0  0  0  0  0  0  0  0  0  0  0  0
   -2.4664   -0.7075    0.0000 C   0  0  0  0  0  0  0  0  0  0  0  0
   -3.3204    0.5257    0.0000 C   0  0  0  0  0  0  0  0  0  0  0  0
   -4.8154    0.4027    0.0000 C   0  0  0  0  0  0  0  0  0  0  0  0
   -5.4563   -0.9535    0.0000 C   0  0  0  0  0  0  0  0  0  0  0  0
   -4.6023   -2.1866    0.0000 C   0  0  0  0  0  0  0  0  0  0  0  0
   -3.1074   -2.0636    0.0000 C   0  0  0  0  0  0  0  0  0  0  0  0
   -0.1175   -1.8176    0.0000 C   0  0  0  0  0  0  0  0  0  0  0  0
   -0.7584   -3.1738    0.0000 C   0  0  0  0  0  0  0  0  0  0  0  0
    0.0956   -4.4070    0.0000 C   0  0  0  0  0  0  0  0  0  0  0  0
    1.5905   -4.2840    0.0000 C   0  0  0  0  0  0  0  0  0  0  0  0
    2.2315   -2.9278    0.0000 C   0  0  0  0  0  0  0  0  0  0  0  0
    1.3775   -1.6946    0.0000 C   0  0  0  0  0  0  0  0  0  0  0  0
  1  2  1  0
  2  3  1  0
  3  4  1  0
  4  5  1  0
  5  6  1  0
  6  7  1  0
  7  8  2  0
  8  9  1  0
  9 10  2  0
 10 11  1  0
 11 12  2  0
  6 13  1  0
 13 14  2  0
 14 15  1  0
 15 16  2  0
 16 17  1  0
 17 18  2  0
  5 19  1  0
 19 20  1  0
 20 21  2  0
 21 22  1  0
 22 23  2  0
 23 24  1  0
 24 25  2  0
 19 26  1  0
 26 27  2  0
 27 28  1  0
 28 29  2  0
 29 30  1  0
 30 31  2  0
 12  7  1  0
 18 13  1  0
 25 20  1  0
 31 26  1  0
M  END
>  <linear_selectivity>  (927) 
55

>  <denticity>  (927) 
2

>  <ligand_class>  (927) 
diphosphine

$$$$
dpppe_130C_dioxane
     RDKit          2D

 31 34  0  0  0  0  0  0  0  0999 V2000
   -5.0284    2.9920    0.0000 C   0  0  0  0  0  0  0  0  0  0  0  0
   -3.5335    3.1150    0.0000 C   0  0  0  0  0  0  0  0  0  0  0  0
   -2.6795    1.8818    0.0000 C   0  0  0  0  0  0  0  0  0  0  0  0
   -1.1845    2.0048    0.0000 C   0  0  0  0  0  0  0  0  0  0  0  0
   -0.3305    0.7717    0.0000 C   0  0  0  0  0  0  0  0  0  0  0  0
    1.1644    0.8947    0.0000 P   0  0  0  0  0  0  0  0  0  0  0  0
    1.8054    2.2508    0.0000 C   0  0  0  0  0  0  0  0  0  0  0  0
    0.9514    3.4840    0.0000 C   0  0  0  0  0  0  0  0  0  0  0  0
    1.5923    4.8402    0.0000 C   0  0  0  0  0  0  0  0  0  0  0  0
    3.0873    4.9632    0.0000 C   0  0  0  0  0  0  0  0  0  0  0  0
    3.9413    3.7300    0.0000 C   0  0  0  0  0  0  0  0  0  0  0  0
    3.3003    2.3738    0.0000 C   0  0  0  0  0  0  0  0  0  0  0  0
    2.0184   -0.3385    0.0000 C   0  0  0  0  0  0  0  0  0  0  0  0
    3.5134   -0.2155    0.0000 C   0  0  0  0  0  0  0  0  0  0  0  0
    4.3674   -1.4486    0.0000 C   0  0  0  0  0  0  0  0  0  0  0  0
    3.7264   -2.8048    0.0000 C   0  0  0  0  0  0  0  0  0  0  0  0
    2.2315   -2.9278    0.0000 C   0  0  0  0  0  0  0  0  0  0  0  0
    1.3775   -1.6946    0.0000 C   0  0  0  0  0  0  0  0  0  0  0  0
   -0.9715   -0.5845    0.0000 P   0  0  0  0  0  0  0  0  0  0  0  0
   -2.4664   -0.7075    0.0000 C   0  0  0  0  0  0  0  0  0  0  0  0
   -3.3204    0.5257    0.0000 C   0  0  0  0  0  0  0  0  0  0  0  0
   -4.8154    0.4027    0.0000 C   0  0  0  0  0  0  0  0  0  0  0  0
   -5.4563   -0.9535    0.0000 C   0  0  0  0  0  0  0  0  0  0  0  0
   -4.6023   -2.1866    0.0000 C   0  0  0  0  0  0  0  0  0  0  0  0
   -3.1074   -2.0636    0.0000 C   0  0  0  0  0  0  0  0  0  0  0  0
   -0.1175   -1.8176    0.0000 C   0  0  0  0  0  0  0  0  0  0  0  0
   -0.7584   -3.1738    0.0000 C   0  0  0  0  0  0  0  0  0  0  0  0
    0.0956   -4.4070    0.0000 C   0  0  0  0  0  0  0  0  0  0  0  0
    1.5905   -4.2840    0.0000 C   0  0  0  0  0  0  0  0  0  0  0  0
    2.2315   -2.9278    0.0000 C   0  0  0  0  0  0  0  0  0  0  0  0
    1.3775   -1.6946    0.0000 C   0  0  0  0  0  0  0  0  0  0  0  0
  1  2  1  0
  2  3  1  0
  3  4  1  0
  4  5  1  0
  5  6  1  0
  6  7  1  0
  7  8  2  0
  8  9  1  0
  9 10  2  0
 10 11  1  0
 11 12  2  0
  6 13  1  0
 13 14  2  0
 14 15  1  0
 15 16  2  0
 16 17  1  0
 17 18  2  0
  5 19  1  0
 19 20  1  0
 20 21  2  0
 21 22  1  0
 22 23  2  0
 23 24  1  0
 24 25  2  0
 19 26  1  0
 26 27  2  0
 27 28  1  0
 28 29  2  0
 29 30  1  0
 30 31  2  0
 12  7  1  0
 18 13  1  0
 25 20  1  0
 31 26  1  0
M  END
>  <linear_selectivity>  (928) 
57

>  <denticity>  (928) 
2

>  <ligand_class>  (928) 
diphosphine

$$$$
dpppe_130C_hexane
     RDKit          2D

 31 34  0  0  0  0  0  0  0  0999 V2000
   -5.0284    2.9920    0.0000 C   0  0  0  0  0  0  0  0  0  0  0  0
   -3.5335    3.1150    0.0000 C   0  0  0  0  0  0  0  0  0  0  0  0
   -2.6795    1.8818    0.0000 C   0  0  0  0  0  0  0  0  0  0  0  0
   -1.1845    2.0048    0.0000 C   0  0  0  0  0  0  0  0  0  0  0  0
   -0.3305    0.7717    0.0000 C   0  0  0  0  0  0  0  0  0  0  0  0
    1.1644    0.8947    0.0000 P   0  0  0  0  0  0  0  0  0  0  0  0
    1.8054    2.2508    0.0000 C   0  0  0  0  0  0  0  0  0  0  0  0
    0.9514    3.4840    0.0000 C   0  0  0  0  0  0  0  0  0  0  0  0
    1.5923    4.8402    0.0000 C   0  0  0  0  0  0  0  0  0  0  0  0
    3.0873    4.9632    0.0000 C   0  0  0  0  0  0  0  0  0  0  0  0
    3.9413    3.7300    0.0000 C   0  0  0  0  0  0  0  0  0  0  0  0
    3.3003    2.3738    0.0000 C   0  0  0  0  0  0  0  0  0  0  0  0
    2.0184   -0.3385    0.0000 C   0  0  0  0  0  0  0  0  0  0  0  0
    3.5134   -0.2155    0.0000 C   0  0  0  0  0  0  0  0  0  0  0  0
    4.3674   -1.4486    0.0000 C   0  0  0  0  0  0  0  0  0  0  0  0
    3.7264   -2.8048    0.0000 C   0  0  0  0  0  0  0  0  0  0  0  0
    2.2315   -2.9278    0.0000 C   0  0  0  0  0  0  0  0  0  0  0  0
    1.3775   -1.6946    0.0000 C   0  0  0  0  0  0  0  0  0  0  0  0
   -0.9715   -0.5845    0.0000 P   0  0  0  0  0  0  0  0  0  0  0  0
   -2.4664   -0.7075    0.0000 C   0  0  0  0  0  0  0  0  0  0  0  0
   -3.3204    0.5257    0.0000 C   0  0  0  0  0  0  0  0  0  0  0  0
   -4.8154    0.4027    0.0000 C   0  0  0  0  0  0  0  0  0  0  0  0
   -5.4563   -0.9535    0.0000 C   0  0  0  0  0  0  0  0  0  0  0  0
   -4.6023   -2.1866    0.0000 C   0  0  0  0  0  0  0  0  0  0  0  0
   -3.1074   -2.0636    0.0000 C   0  0  0  0  0  0  0  0  0  0  0  0
   -0.1175   -1.8176    0.0000 C   0  0  0  0  0  0  0  0  0  0  0  0
   -0.7584   -3.1738    0.0000 C   0  0  0  0  0  0  0  0  0  0  0  0
    0.0956   -4.4070    0.0000 C   0  0  0  0  0  0  0  0  0  0  0  0
    1.5905   -4.2840    0.0000 C   0  0  0  0  0  0  0  0  0  0  0  0
    2.2315   -2.9278    0.0000 C   0  0  0  0  0  0  0  0  0  0  0  0
    1.3775   -1.6946    0.0000 C   0  0  0  0  0  0  0  0  0  0  0  0
  1  2  1  0
  2  3  1  0
  3  4  1  0
  4  5  1  0
  5  6  1  0
  6  7  1  0
  7  8  2  0
  8  9  1  0
  9 10  2  0
 10 11  1  0
 11 12  2  0
  6 13  1  0
 13 14  2  0
 14 15  1  0
 15 16  2  0
 16 17  1  0
 17 18  2  0
  5 19  1  0
 19 20  1  0
 20 21  2  0
 21 22  1  0
 22 23  2  0
 23 24  1  0
 24 25  2  0
 19 26  1  0
 26 27  2  0
 27 28  1  0
 28 29  2  0
 29 30  1  0
 30 31  2  0
 12  7  1  0
 18 13  1  0
 25 20  1  0
 31 26  1  0
M  END
>  <linear_selectivity>  (929) 
60

>  <denticity>  (929) 
2

>  <ligand_class>  (929) 
diphosphine

$$$$
dpppe_130C_xylene
     RDKit          2D

 31 34  0  0  0  0  0  0  0  0999 V2000
   -5.0284    2.9920    0.0000 C   0  0  0  0  0  0  0  0  0  0  0  0
   -3.5335    3.1150    0.0000 C   0  0  0  0  0  0  0  0  0  0  0  0
   -2.6795    1.8818    0.0000 C   0  0  0  0  0  0  0  0  0  0  0  0
   -1.1845    2.0048    0.0000 C   0  0  0  0  0  0  0  0  0  0  0  0
   -0.3305    0.7717    0.0000 C   0  0  0  0  0  0  0  0  0  0  0  0
    1.1644    0.8947    0.0000 P   0  0  0  0  0  0  0  0  0  0  0  0
    1.8054    2.2508    0.0000 C   0  0  0  0  0  0  0  0  0  0  0  0
    0.9514    3.4840    0.0000 C   0  0  0  0  0  0  0  0  0  0  0  0
    1.5923    4.8402    0.0000 C   0  0  0  0  0  0  0  0  0  0  0  0
    3.0873    4.9632    0.0000 C   0  0  0  0  0  0  0  0  0  0  0  0
    3.9413    3.7300    0.0000 C   0  0  0  0  0  0  0  0  0  0  0  0
    3.3003    2.3738    0.0000 C   0  0  0  0  0  0  0  0  0  0  0  0
    2.0184   -0.3385    0.0000 C   0  0  0  0  0  0  0  0  0  0  0  0
    3.5134   -0.2155    0.0000 C   0  0  0  0  0  0  0  0  0  0  0  0
    4.3674   -1.4486    0.0000 C   0  0  0  0  0  0  0  0  0  0  0  0
    3.7264   -2.8048    0.0000 C   0  0  0  0  0  0  0  0  0  0  0  0
    2.2315   -2.9278    0.0000 C   0  0  0  0  0  0  0  0  0  0  0  0
    1.3775   -1.6946    0.0000 C   0  0  0  0  0  0  0  0  0  0  0  0
   -0.9715   -0.5845    0.0000 P   0  0  0  0  0  0  0  0  0  0  0  0
   -2.4664   -0.7075    0.0000 C   0  0  0  0  0  0  0  0  0  0  0  0
   -3.3204    0.5257    0.0000 C   0  0  0  0  0  0  0  0  0  0  0  0
   -4.8154    0.4027    0.0000 C   0  0  0  0  0  0  0  0  0  0  0  0
   -5.4563   -0.9535    0.0000 C   0  0  0  0  0  0  0  0  0  0  0  0
   -4.6023   -2.1866    0.0000 C   0  0  0  0  0  0  0  0  0  0  0  0
   -3.1074   -2.0636    0.0000 C   0  0  0  0  0  0  0  0  0  0  0  0
   -0.1175   -1.8176    0.0000 C   0  0  0  0  0  0  0  0  0  0  0  0
   -0.7584   -3.1738    0.0000 C   0  0  0  0  0  0  0  0  0  0  0  0
    0.0956   -4.4070    0.0000 C   0  0  0  0  0  0  0  0  0  0  0  0
    1.5905   -4.2840    0.0000 C   0  0  0  0  0  0  0  0  0  0  0  0
    2.2315   -2.9278    0.0000 C   0  0  0  0  0  0  0  0  0  0  0  0
    1.3775   -1.6946    0.0000 C   0  0  0  0  0  0  0  0  0  0  0  0
  1  2  1  0
  2  3  1  0
  3  4  1  0
  4  5  1  0
  5  6  1  0
  6  7  1  0
  7  8  2  0
  8  9  1  0
  9 10  2  0
 10 11  1  0
 11 12  2  0
  6 13  1  0
 13 14  2  0
 14 15  1  0
 15 16  2  0
 16 17  1  0
 17 18  2  0
  5 19  1  0
 19 20  1  0
 20 21  2  0
 21 22  1  0
 22 23  2  0
 23 24  1  0
 24 25  2  0
 19 26  1  0
 26 27  2  0
 27 28  1  0
 28 29  2  0
 29 30  1  0
 30 31  2  0
 12  7  1  0
 18 13  1  0
 25 20  1  0
 31 26  1  0
M  END
>  <linear_selectivity>  (930) 
58

>  <denticity>  (930) 
2

>  <ligand_class>  (930) 
diphosphine

$$$$
dpph
     RDKit          2D

 32 35  0  0  0  0  0  0  0  0999 V2000
   -6.6791    2.1488    0.0000 C   0  0  0  0  0  0  0  0  0  0  0  0
   -5.4881    1.2368    0.0000 C   0  0  0  0  0  0  0  0  0  0  0  0
   -4.1029    1.8123    0.0000 C   0  0  0  0  0  0  0  0  0  0  0  0
   -2.9119    0.9003    0.0000 C   0  0  0  0  0  0  0  0  0  0  0  0
   -1.5267    1.4758    0.0000 C   0  0  0  0  0  0  0  0  0  0  0  0
   -0.3357    0.5639    0.0000 C   0  0  0  0  0  0  0  0  0  0  0  0
    1.0495    1.1393    0.0000 P   0  0  0  0  0  0  0  0  0  0  0  0
    2.2404    0.2274    0.0000 C   0  0  0  0  0  0  0  0  0  0  0  0
    2.0462   -1.2600    0.0000 C   0  0  0  0  0  0  0  0  0  0  0  0
    3.2371   -2.1719    0.0000 C   0  0  0  0  0  0  0  0  0  0  0  0
    4.6224   -1.5965    0.0000 C   0  0  0  0  0  0  0  0  0  0  0  0
    4.8166   -0.1091    0.0000 C   0  0  0  0  0  0  0  0  0  0  0  0
    3.6257    0.8028    0.0000 C   0  0  0  0  0  0  0  0  0  0  0  0
    1.2438    2.6267    0.0000 C   0  0  0  0  0  0  0  0  0  0  0  0
    2.6290    3.2021    0.0000 C   0  0  0  0  0  0  0  0  0  0  0  0
    2.8233    4.6895    0.0000 C   0  0  0  0  0  0  0  0  0  0  0  0
    1.6323    5.6014    0.0000 C   0  0  0  0  0  0  0  0  0  0  0  0
    0.2471    5.0260    0.0000 C   0  0  0  0  0  0  0  0  0  0  0  0
    0.0528    3.5386    0.0000 C   0  0  0  0  0  0  0  0  0  0  0  0
   -0.5300   -0.9235    0.0000 P   0  0  0  0  0  0  0  0  0  0  0  0
   -1.9153   -1.4989    0.0000 C   0  0  0  0  0  0  0  0  0  0  0  0
   -3.1062   -0.5870    0.0000 C   0  0  0  0  0  0  0  0  0  0  0  0
   -4.4914   -1.1625    0.0000 C   0  0  0  0  0  0  0  0  0  0  0  0
   -4.6857   -2.6498    0.0000 C   0  0  0  0  0  0  0  0  0  0  0  0
   -3.4948   -3.5617    0.0000 C   0  0  0  0  0  0  0  0  0  0  0  0
   -2.1095   -2.9863    0.0000 C   0  0  0  0  0  0  0  0  0  0  0  0
    0.6609   -1.8354    0.0000 C   0  0  0  0  0  0  0  0  0  0  0  0
    0.4667   -3.3228    0.0000 C   0  0  0  0  0  0  0  0  0  0  0  0
    1.6576   -4.2347    0.0000 C   0  0  0  0  0  0  0  0  0  0  0  0
    3.0429   -3.6593    0.0000 C   0  0  0  0  0  0  0  0  0  0  0  0
    3.2371   -2.1719    0.0000 C   0  0  0  0  0  0  0  0  0  0  0  0
    2.0462   -1.2600    0.0000 C   0  0  0  0  0  0  0  0  0  0  0  0
  1  2  1  0
  2  3  1  0
  3  4  1  0
  4  5  1  0
  5  6  1  0
  6  7  1  0
  7  8  1  0
  8  9  2  0
  9 10  1  0
 10 11  2  0
 11 12  1  0
 12 13  2  0
  7 14  1  0
 14 15  2  0
 15 16  1  0
 16 17  2  0
 17 18  1  0
 18 19  2  0
  6 20  1  0
 20 21  1  0
 21 22  2  0
 22 23  1  0
 23 24  2  0
 24 25  1  0
 25 26  2  0
 20 27  1  0
 27 28  2  0
 28 29  1  0
 29 30  2  0
 30 31  1  0
 31 32  2  0
 13  8  1  0
 19 14  1  0
 26 21  1  0
 32 27  1  0
M  END
>  <linear_selectivity>  (931) 
58

>  <denticity>  (931) 
2

>  <ligand_class>  (931) 
diphosphine

$$$$
dpph_70C_toluene
     RDKit          2D

 32 35  0  0  0  0  0  0  0  0999 V2000
   -6.6791    2.1488    0.0000 C   0  0  0  0  0  0  0  0  0  0  0  0
   -5.4881    1.2368    0.0000 C   0  0  0  0  0  0  0  0  0  0  0  0
   -4.1029    1.8123    0.0000 C   0  0  0  0  0  0  0  0  0  0  0  0
   -2.9119    0.9003    0.0000 C   0  0  0  0  0  0  0  0  0  0  0  0
   -1.5267    1.4758    0.0000 C   0  0  0  0  0  0  0  0  0  0  0  0
   -0.3357    0.5639    0.0000 C   0  0  0  0  0  0  0  0  0  0  0  0
    1.0495    1.1393    0.0000 P   0  0  0  0  0  0  0  0  0  0  0  0
    2.2404    0.2274    0.0000 C   0  0  0  0  0  0  0  0  0  0  0  0
    2.0462   -1.2600    0.0000 C   0  0  0  0  0  0  0  0  0  0  0  0
    3.2371   -2.1719    0.0000 C   0  0  0  0  0  0  0  0  0  0  0  0
    4.6224   -1.5965    0.0000 C   0  0  0  0  0  0  0  0  0  0  0  0
    4.8166   -0.1091    0.0000 C   0  0  0  0  0  0  0  0  0  0  0  0
    3.6257    0.8028    0.0000 C   0  0  0  0  0  0  0  0  0  0  0  0
    1.2438    2.6267    0.0000 C   0  0  0  0  0  0  0  0  0  0  0  0
    2.6290    3.2021    0.0000 C   0  0  0  0  0  0  0  0  0  0  0  0
    2.8233    4.6895    0.0000 C   0  0  0  0  0  0  0  0  0  0  0  0
    1.6323    5.6014    0.0000 C   0  0  0  0  0  0  0  0  0  0  0  0
    0.2471    5.0260    0.0000 C   0  0  0  0  0  0  0  0  0  0  0  0
    0.0528    3.5386    0.0000 C   0  0  0  0  0  0  0  0  0  0  0  0
   -0.5300   -0.9235    0.0000 P   0  0  0  0  0  0  0  0  0  0  0  0
   -1.9153   -1.4989    0.0000 C   0  0  0  0  0  0  0  0  0  0  0  0
   -3.1062   -0.5870    0.0000 C   0  0  0  0  0  0  0  0  0  0  0  0
   -4.4914   -1.1625    0.0000 C   0  0  0  0  0  0  0  0  0  0  0  0
   -4.6857   -2.6498    0.0000 C   0  0  0  0  0  0  0  0  0  0  0  0
   -3.4948   -3.5617    0.0000 C   0  0  0  0  0  0  0  0  0  0  0  0
   -2.1095   -2.9863    0.0000 C   0  0  0  0  0  0  0  0  0  0  0  0
    0.6609   -1.8354    0.0000 C   0  0  0  0  0  0  0  0  0  0  0  0
    0.4667   -3.3228    0.0000 C   0  0  0  0  0  0  0  0  0  0  0  0
    1.6576   -4.2347    0.0000 C   0  0  0  0  0  0  0  0  0  0  0  0
    3.0429   -3.6593    0.0000 C   0  0  0  0  0  0  0  0  0  0  0  0
    3.2371   -2.1719    0.0000 C   0  0  0  0  0  0  0  0  0  0  0  0
    2.0462   -1.2600    0.0000 C   0  0  0  0  0  0  0  0  0  0  0  0
  1  2  1  0
  2  3  1  0
  3  4  1  0
  4  5  1  0
  5  6  1  0
  6  7  1  0
  7  8  1  0
  8  9  2  0
  9 10  1  0
 10 11  2  0
 11 12  1  0
 12 13  2  0
  7 14  1  0
 14 15  2  0
 15 16  1  0
 16 17  2  0
 17 18  1  0
 18 19  2  0
  6 20  1  0
 20 21  1  0
 21 22  2  0
 22 23  1  0
 23 24  2  0
 24 25  1  0
 25 26  2  0
 20 27  1  0
 27 28  2  0
 28 29  1  0
 29 30  2  0
 30 31  1  0
 31 32  2  0
 13  8  1  0
 19 14  1  0
 26 21  1  0
 32 27  1  0
M  END
>  <linear_selectivity>  (932) 
68

>  <denticity>  (932) 
2

>  <ligand_class>  (932) 
diphosphine

$$$$
dpph_70C_THF
     RDKit          2D

 32 35  0  0  0  0  0  0  0  0999 V2000
   -6.6791    2.1488    0.0000 C   0  0  0  0  0  0  0  0  0  0  0  0
   -5.4881    1.2368    0.0000 C   0  0  0  0  0  0  0  0  0  0  0  0
   -4.1029    1.8123    0.0000 C   0  0  0  0  0  0  0  0  0  0  0  0
   -2.9119    0.9003    0.0000 C   0  0  0  0  0  0  0  0  0  0  0  0
   -1.5267    1.4758    0.0000 C   0  0  0  0  0  0  0  0  0  0  0  0
   -0.3357    0.5639    0.0000 C   0  0  0  0  0  0  0  0  0  0  0  0
    1.0495    1.1393    0.0000 P   0  0  0  0  0  0  0  0  0  0  0  0
    2.2404    0.2274    0.0000 C   0  0  0  0  0  0  0  0  0  0  0  0
    2.0462   -1.2600    0.0000 C   0  0  0  0  0  0  0  0  0  0  0  0
    3.2371   -2.1719    0.0000 C   0  0  0  0  0  0  0  0  0  0  0  0
    4.6224   -1.5965    0.0000 C   0  0  0  0  0  0  0  0  0  0  0  0
    4.8166   -0.1091    0.0000 C   0  0  0  0  0  0  0  0  0  0  0  0
    3.6257    0.8028    0.0000 C   0  0  0  0  0  0  0  0  0  0  0  0
    1.2438    2.6267    0.0000 C   0  0  0  0  0  0  0  0  0  0  0  0
    2.6290    3.2021    0.0000 C   0  0  0  0  0  0  0  0  0  0  0  0
    2.8233    4.6895    0.0000 C   0  0  0  0  0  0  0  0  0  0  0  0
    1.6323    5.6014    0.0000 C   0  0  0  0  0  0  0  0  0  0  0  0
    0.2471    5.0260    0.0000 C   0  0  0  0  0  0  0  0  0  0  0  0
    0.0528    3.5386    0.0000 C   0  0  0  0  0  0  0  0  0  0  0  0
   -0.5300   -0.9235    0.0000 P   0  0  0  0  0  0  0  0  0  0  0  0
   -1.9153   -1.4989    0.0000 C   0  0  0  0  0  0  0  0  0  0  0  0
   -3.1062   -0.5870    0.0000 C   0  0  0  0  0  0  0  0  0  0  0  0
   -4.4914   -1.1625    0.0000 C   0  0  0  0  0  0  0  0  0  0  0  0
   -4.6857   -2.6498    0.0000 C   0  0  0  0  0  0  0  0  0  0  0  0
   -3.4948   -3.5617    0.0000 C   0  0  0  0  0  0  0  0  0  0  0  0
   -2.1095   -2.9863    0.0000 C   0  0  0  0  0  0  0  0  0  0  0  0
    0.6609   -1.8354    0.0000 C   0  0  0  0  0  0  0  0  0  0  0  0
    0.4667   -3.3228    0.0000 C   0  0  0  0  0  0  0  0  0  0  0  0
    1.6576   -4.2347    0.0000 C   0  0  0  0  0  0  0  0  0  0  0  0
    3.0429   -3.6593    0.0000 C   0  0  0  0  0  0  0  0  0  0  0  0
    3.2371   -2.1719    0.0000 C   0  0  0  0  0  0  0  0  0  0  0  0
    2.0462   -1.2600    0.0000 C   0  0  0  0  0  0  0  0  0  0  0  0
  1  2  1  0
  2  3  1  0
  3  4  1  0
  4  5  1  0
  5  6  1  0
  6  7  1  0
  7  8  1  0
  8  9  2  0
  9 10  1  0
 10 11  2  0
 11 12  1  0
 12 13  2  0
  7 14  1  0
 14 15  2  0
 15 16  1  0
 16 17  2  0
 17 18  1  0
 18 19  2  0
  6 20  1  0
 20 21  1  0
 21 22  2  0
 22 23  1  0
 23 24  2  0
 24 25  1  0
 25 26  2  0
 20 27  1  0
 27 28  2  0
 28 29  1  0
 29 30  2  0
 30 31  1  0
 31 32  2  0
 13  8  1  0
 19 14  1  0
 26 21  1  0
 32 27  1  0
M  END
>  <linear_selectivity>  (933) 
61

>  <denticity>  (933) 
2

>  <ligand_class>  (933) 
diphosphine

$$$$
dpph_70C_hexane
     RDKit          2D

 32 35  0  0  0  0  0  0  0  0999 V2000
   -6.6791    2.1488    0.0000 C   0  0  0  0  0  0  0  0  0  0  0  0
   -5.4881    1.2368    0.0000 C   0  0  0  0  0  0  0  0  0  0  0  0
   -4.1029    1.8123    0.0000 C   0  0  0  0  0  0  0  0  0  0  0  0
   -2.9119    0.9003    0.0000 C   0  0  0  0  0  0  0  0  0  0  0  0
   -1.5267    1.4758    0.0000 C   0  0  0  0  0  0  0  0  0  0  0  0
   -0.3357    0.5639    0.0000 C   0  0  0  0  0  0  0  0  0  0  0  0
    1.0495    1.1393    0.0000 P   0  0  0  0  0  0  0  0  0  0  0  0
    2.2404    0.2274    0.0000 C   0  0  0  0  0  0  0  0  0  0  0  0
    2.0462   -1.2600    0.0000 C   0  0  0  0  0  0  0  0  0  0  0  0
    3.2371   -2.1719    0.0000 C   0  0  0  0  0  0  0  0  0  0  0  0
    4.6224   -1.5965    0.0000 C   0  0  0  0  0  0  0  0  0  0  0  0
    4.8166   -0.1091    0.0000 C   0  0  0  0  0  0  0  0  0  0  0  0
    3.6257    0.8028    0.0000 C   0  0  0  0  0  0  0  0  0  0  0  0
    1.2438    2.6267    0.0000 C   0  0  0  0  0  0  0  0  0  0  0  0
    2.6290    3.2021    0.0000 C   0  0  0  0  0  0  0  0  0  0  0  0
    2.8233    4.6895    0.0000 C   0  0  0  0  0  0  0  0  0  0  0  0
    1.6323    5.6014    0.0000 C   0  0  0  0  0  0  0  0  0  0  0  0
    0.2471    5.0260    0.0000 C   0  0  0  0  0  0  0  0  0  0  0  0
    0.0528    3.5386    0.0000 C   0  0  0  0  0  0  0  0  0  0  0  0
   -0.5300   -0.9235    0.0000 P   0  0  0  0  0  0  0  0  0  0  0  0
   -1.9153   -1.4989    0.0000 C   0  0  0  0  0  0  0  0  0  0  0  0
   -3.1062   -0.5870    0.0000 C   0  0  0  0  0  0  0  0  0  0  0  0
   -4.4914   -1.1625    0.0000 C   0  0  0  0  0  0  0  0  0  0  0  0
   -4.6857   -2.6498    0.0000 C   0  0  0  0  0  0  0  0  0  0  0  0
   -3.4948   -3.5617    0.0000 C   0  0  0  0  0  0  0  0  0  0  0  0
   -2.1095   -2.9863    0.0000 C   0  0  0  0  0  0  0  0  0  0  0  0
    0.6609   -1.8354    0.0000 C   0  0  0  0  0  0  0  0  0  0  0  0
    0.4667   -3.3228    0.0000 C   0  0  0  0  0  0  0  0  0  0  0  0
    1.6576   -4.2347    0.0000 C   0  0  0  0  0  0  0  0  0  0  0  0
    3.0429   -3.6593    0.0000 C   0  0  0  0  0  0  0  0  0  0  0  0
    3.2371   -2.1719    0.0000 C   0  0  0  0  0  0  0  0  0  0  0  0
    2.0462   -1.2600    0.0000 C   0  0  0  0  0  0  0  0  0  0  0  0
  1  2  1  0
  2  3  1  0
  3  4  1  0
  4  5  1  0
  5  6  1  0
  6  7  1  0
  7  8  1  0
  8  9  2  0
  9 10  1  0
 10 11  2  0
 11 12  1  0
 12 13  2  0
  7 14  1  0
 14 15  2  0
 15 16  1  0
 16 17  2  0
 17 18  1  0
 18 19  2  0
  6 20  1  0
 20 21  1  0
 21 22  2  0
 22 23  1  0
 23 24  2  0
 24 25  1  0
 25 26  2  0
 20 27  1  0
 27 28  2  0
 28 29  1  0
 29 30  2  0
 30 31  1  0
 31 32  2  0
 13  8  1  0
 19 14  1  0
 26 21  1  0
 32 27  1  0
M  END
>  <linear_selectivity>  (934) 
67

>  <denticity>  (934) 
2

>  <ligand_class>  (934) 
diphosphine

$$$$
dpph_70C_benzene
     RDKit          2D

 32 35  0  0  0  0  0  0  0  0999 V2000
   -6.6791    2.1488    0.0000 C   0  0  0  0  0  0  0  0  0  0  0  0
   -5.4881    1.2368    0.0000 C   0  0  0  0  0  0  0  0  0  0  0  0
   -4.1029    1.8123    0.0000 C   0  0  0  0  0  0  0  0  0  0  0  0
   -2.9119    0.9003    0.0000 C   0  0  0  0  0  0  0  0  0  0  0  0
   -1.5267    1.4758    0.0000 C   0  0  0  0  0  0  0  0  0  0  0  0
   -0.3357    0.5639    0.0000 C   0  0  0  0  0  0  0  0  0  0  0  0
    1.0495    1.1393    0.0000 P   0  0  0  0  0  0  0  0  0  0  0  0
    2.2404    0.2274    0.0000 C   0  0  0  0  0  0  0  0  0  0  0  0
    2.0462   -1.2600    0.0000 C   0  0  0  0  0  0  0  0  0  0  0  0
    3.2371   -2.1719    0.0000 C   0  0  0  0  0  0  0  0  0  0  0  0
    4.6224   -1.5965    0.0000 C   0  0  0  0  0  0  0  0  0  0  0  0
    4.8166   -0.1091    0.0000 C   0  0  0  0  0  0  0  0  0  0  0  0
    3.6257    0.8028    0.0000 C   0  0  0  0  0  0  0  0  0  0  0  0
    1.2438    2.6267    0.0000 C   0  0  0  0  0  0  0  0  0  0  0  0
    2.6290    3.2021    0.0000 C   0  0  0  0  0  0  0  0  0  0  0  0
    2.8233    4.6895    0.0000 C   0  0  0  0  0  0  0  0  0  0  0  0
    1.6323    5.6014    0.0000 C   0  0  0  0  0  0  0  0  0  0  0  0
    0.2471    5.0260    0.0000 C   0  0  0  0  0  0  0  0  0  0  0  0
    0.0528    3.5386    0.0000 C   0  0  0  0  0  0  0  0  0  0  0  0
   -0.5300   -0.9235    0.0000 P   0  0  0  0  0  0  0  0  0  0  0  0
   -1.9153   -1.4989    0.0000 C   0  0  0  0  0  0  0  0  0  0  0  0
   -3.1062   -0.5870    0.0000 C   0  0  0  0  0  0  0  0  0  0  0  0
   -4.4914   -1.1625    0.0000 C   0  0  0  0  0  0  0  0  0  0  0  0
   -4.6857   -2.6498    0.0000 C   0  0  0  0  0  0  0  0  0  0  0  0
   -3.4948   -3.5617    0.0000 C   0  0  0  0  0  0  0  0  0  0  0  0
   -2.1095   -2.9863    0.0000 C   0  0  0  0  0  0  0  0  0  0  0  0
    0.6609   -1.8354    0.0000 C   0  0  0  0  0  0  0  0  0  0  0  0
    0.4667   -3.3228    0.0000 C   0  0  0  0  0  0  0  0  0  0  0  0
    1.6576   -4.2347    0.0000 C   0  0  0  0  0  0  0  0  0  0  0  0
    3.0429   -3.6593    0.0000 C   0  0  0  0  0  0  0  0  0  0  0  0
    3.2371   -2.1719    0.0000 C   0  0  0  0  0  0  0  0  0  0  0  0
    2.0462   -1.2600    0.0000 C   0  0  0  0  0  0  0  0  0  0  0  0
  1  2  1  0
  2  3  1  0
  3  4  1  0
  4  5  1  0
  5  6  1  0
  6  7  1  0
  7  8  1  0
  8  9  2  0
  9 10  1  0
 10 11  2  0
 11 12  1  0
 12 13  2  0
  7 14  1  0
 14 15  2  0
 15 16  1  0
 16 17  2  0
 17 18  1  0
 18 19  2  0
  6 20  1  0
 20 21  1  0
 21 22  2  0
 22 23  1  0
 23 24  2  0
 24 25  1  0
 25 26  2  0
 20 27  1  0
 27 28  2  0
 28 29  1  0
 29 30  2  0
 30 31  1  0
 31 32  2  0
 13  8  1  0
 19 14  1  0
 26 21  1  0
 32 27  1  0
M  END
>  <linear_selectivity>  (935) 
62

>  <denticity>  (935) 
2

>  <ligand_class>  (935) 
diphosphine

$$$$
dpph_80C_THF
     RDKit          2D

 32 35  0  0  0  0  0  0  0  0999 V2000
   -6.6791    2.1488    0.0000 C   0  0  0  0  0  0  0  0  0  0  0  0
   -5.4881    1.2368    0.0000 C   0  0  0  0  0  0  0  0  0  0  0  0
   -4.1029    1.8123    0.0000 C   0  0  0  0  0  0  0  0  0  0  0  0
   -2.9119    0.9003    0.0000 C   0  0  0  0  0  0  0  0  0  0  0  0
   -1.5267    1.4758    0.0000 C   0  0  0  0  0  0  0  0  0  0  0  0
   -0.3357    0.5639    0.0000 C   0  0  0  0  0  0  0  0  0  0  0  0
    1.0495    1.1393    0.0000 P   0  0  0  0  0  0  0  0  0  0  0  0
    2.2404    0.2274    0.0000 C   0  0  0  0  0  0  0  0  0  0  0  0
    2.0462   -1.2600    0.0000 C   0  0  0  0  0  0  0  0  0  0  0  0
    3.2371   -2.1719    0.0000 C   0  0  0  0  0  0  0  0  0  0  0  0
    4.6224   -1.5965    0.0000 C   0  0  0  0  0  0  0  0  0  0  0  0
    4.8166   -0.1091    0.0000 C   0  0  0  0  0  0  0  0  0  0  0  0
    3.6257    0.8028    0.0000 C   0  0  0  0  0  0  0  0  0  0  0  0
    1.2438    2.6267    0.0000 C   0  0  0  0  0  0  0  0  0  0  0  0
    2.6290    3.2021    0.0000 C   0  0  0  0  0  0  0  0  0  0  0  0
    2.8233    4.6895    0.0000 C   0  0  0  0  0  0  0  0  0  0  0  0
    1.6323    5.6014    0.0000 C   0  0  0  0  0  0  0  0  0  0  0  0
    0.2471    5.0260    0.0000 C   0  0  0  0  0  0  0  0  0  0  0  0
    0.0528    3.5386    0.0000 C   0  0  0  0  0  0  0  0  0  0  0  0
   -0.5300   -0.9235    0.0000 P   0  0  0  0  0  0  0  0  0  0  0  0
   -1.9153   -1.4989    0.0000 C   0  0  0  0  0  0  0  0  0  0  0  0
   -3.1062   -0.5870    0.0000 C   0  0  0  0  0  0  0  0  0  0  0  0
   -4.4914   -1.1625    0.0000 C   0  0  0  0  0  0  0  0  0  0  0  0
   -4.6857   -2.6498    0.0000 C   0  0  0  0  0  0  0  0  0  0  0  0
   -3.4948   -3.5617    0.0000 C   0  0  0  0  0  0  0  0  0  0  0  0
   -2.1095   -2.9863    0.0000 C   0  0  0  0  0  0  0  0  0  0  0  0
    0.6609   -1.8354    0.0000 C   0  0  0  0  0  0  0  0  0  0  0  0
    0.4667   -3.3228    0.0000 C   0  0  0  0  0  0  0  0  0  0  0  0
    1.6576   -4.2347    0.0000 C   0  0  0  0  0  0  0  0  0  0  0  0
    3.0429   -3.6593    0.0000 C   0  0  0  0  0  0  0  0  0  0  0  0
    3.2371   -2.1719    0.0000 C   0  0  0  0  0  0  0  0  0  0  0  0
    2.0462   -1.2600    0.0000 C   0  0  0  0  0  0  0  0  0  0  0  0
  1  2  1  0
  2  3  1  0
  3  4  1  0
  4  5  1  0
  5  6  1  0
  6  7  1  0
  7  8  1  0
  8  9  2  0
  9 10  1  0
 10 11  2  0
 11 12  1  0
 12 13  2  0
  7 14  1  0
 14 15  2  0
 15 16  1  0
 16 17  2  0
 17 18  1  0
 18 19  2  0
  6 20  1  0
 20 21  1  0
 21 22  2  0
 22 23  1  0
 23 24  2  0
 24 25  1  0
 25 26  2  0
 20 27  1  0
 27 28  2  0
 28 29  1  0
 29 30  2  0
 30 31  1  0
 31 32  2  0
 13  8  1  0
 19 14  1  0
 26 21  1  0
 32 27  1  0
M  END
>  <linear_selectivity>  (936) 
62

>  <denticity>  (936) 
2

>  <ligand_class>  (936) 
diphosphine

$$$$
dpph_80C_dioxane
     RDKit          2D

 32 35  0  0  0  0  0  0  0  0999 V2000
   -6.6791    2.1488    0.0000 C   0  0  0  0  0  0  0  0  0  0  0  0
   -5.4881    1.2368    0.0000 C   0  0  0  0  0  0  0  0  0  0  0  0
   -4.1029    1.8123    0.0000 C   0  0  0  0  0  0  0  0  0  0  0  0
   -2.9119    0.9003    0.0000 C   0  0  0  0  0  0  0  0  0  0  0  0
   -1.5267    1.4758    0.0000 C   0  0  0  0  0  0  0  0  0  0  0  0
   -0.3357    0.5639    0.0000 C   0  0  0  0  0  0  0  0  0  0  0  0
    1.0495    1.1393    0.0000 P   0  0  0  0  0  0  0  0  0  0  0  0
    2.2404    0.2274    0.0000 C   0  0  0  0  0  0  0  0  0  0  0  0
    2.0462   -1.2600    0.0000 C   0  0  0  0  0  0  0  0  0  0  0  0
    3.2371   -2.1719    0.0000 C   0  0  0  0  0  0  0  0  0  0  0  0
    4.6224   -1.5965    0.0000 C   0  0  0  0  0  0  0  0  0  0  0  0
    4.8166   -0.1091    0.0000 C   0  0  0  0  0  0  0  0  0  0  0  0
    3.6257    0.8028    0.0000 C   0  0  0  0  0  0  0  0  0  0  0  0
    1.2438    2.6267    0.0000 C   0  0  0  0  0  0  0  0  0  0  0  0
    2.6290    3.2021    0.0000 C   0  0  0  0  0  0  0  0  0  0  0  0
    2.8233    4.6895    0.0000 C   0  0  0  0  0  0  0  0  0  0  0  0
    1.6323    5.6014    0.0000 C   0  0  0  0  0  0  0  0  0  0  0  0
    0.2471    5.0260    0.0000 C   0  0  0  0  0  0  0  0  0  0  0  0
    0.0528    3.5386    0.0000 C   0  0  0  0  0  0  0  0  0  0  0  0
   -0.5300   -0.9235    0.0000 P   0  0  0  0  0  0  0  0  0  0  0  0
   -1.9153   -1.4989    0.0000 C   0  0  0  0  0  0  0  0  0  0  0  0
   -3.1062   -0.5870    0.0000 C   0  0  0  0  0  0  0  0  0  0  0  0
   -4.4914   -1.1625    0.0000 C   0  0  0  0  0  0  0  0  0  0  0  0
   -4.6857   -2.6498    0.0000 C   0  0  0  0  0  0  0  0  0  0  0  0
   -3.4948   -3.5617    0.0000 C   0  0  0  0  0  0  0  0  0  0  0  0
   -2.1095   -2.9863    0.0000 C   0  0  0  0  0  0  0  0  0  0  0  0
    0.6609   -1.8354    0.0000 C   0  0  0  0  0  0  0  0  0  0  0  0
    0.4667   -3.3228    0.0000 C   0  0  0  0  0  0  0  0  0  0  0  0
    1.6576   -4.2347    0.0000 C   0  0  0  0  0  0  0  0  0  0  0  0
    3.0429   -3.6593    0.0000 C   0  0  0  0  0  0  0  0  0  0  0  0
    3.2371   -2.1719    0.0000 C   0  0  0  0  0  0  0  0  0  0  0  0
    2.0462   -1.2600    0.0000 C   0  0  0  0  0  0  0  0  0  0  0  0
  1  2  1  0
  2  3  1  0
  3  4  1  0
  4  5  1  0
  5  6  1  0
  6  7  1  0
  7  8  1  0
  8  9  2  0
  9 10  1  0
 10 11  2  0
 11 12  1  0
 12 13  2  0
  7 14  1  0
 14 15  2  0
 15 16  1  0
 16 17  2  0
 17 18  1  0
 18 19  2  0
  6 20  1  0
 20 21  1  0
 21 22  2  0
 22 23  1  0
 23 24  2  0
 24 25  1  0
 25 26  2  0
 20 27  1  0
 27 28  2  0
 28 29  1  0
 29 30  2  0
 30 31  1  0
 31 32  2  0
 13  8  1  0
 19 14  1  0
 26 21  1  0
 32 27  1  0
M  END
>  <linear_selectivity>  (937) 
58

>  <denticity>  (937) 
2

>  <ligand_class>  (937) 
diphosphine

$$$$
dpph_80C_xylene
     RDKit          2D

 32 35  0  0  0  0  0  0  0  0999 V2000
   -6.6791    2.1488    0.0000 C   0  0  0  0  0  0  0  0  0  0  0  0
   -5.4881    1.2368    0.0000 C   0  0  0  0  0  0  0  0  0  0  0  0
   -4.1029    1.8123    0.0000 C   0  0  0  0  0  0  0  0  0  0  0  0
   -2.9119    0.9003    0.0000 C   0  0  0  0  0  0  0  0  0  0  0  0
   -1.5267    1.4758    0.0000 C   0  0  0  0  0  0  0  0  0  0  0  0
   -0.3357    0.5639    0.0000 C   0  0  0  0  0  0  0  0  0  0  0  0
    1.0495    1.1393    0.0000 P   0  0  0  0  0  0  0  0  0  0  0  0
    2.2404    0.2274    0.0000 C   0  0  0  0  0  0  0  0  0  0  0  0
    2.0462   -1.2600    0.0000 C   0  0  0  0  0  0  0  0  0  0  0  0
    3.2371   -2.1719    0.0000 C   0  0  0  0  0  0  0  0  0  0  0  0
    4.6224   -1.5965    0.0000 C   0  0  0  0  0  0  0  0  0  0  0  0
    4.8166   -0.1091    0.0000 C   0  0  0  0  0  0  0  0  0  0  0  0
    3.6257    0.8028    0.0000 C   0  0  0  0  0  0  0  0  0  0  0  0
    1.2438    2.6267    0.0000 C   0  0  0  0  0  0  0  0  0  0  0  0
    2.6290    3.2021    0.0000 C   0  0  0  0  0  0  0  0  0  0  0  0
    2.8233    4.6895    0.0000 C   0  0  0  0  0  0  0  0  0  0  0  0
    1.6323    5.6014    0.0000 C   0  0  0  0  0  0  0  0  0  0  0  0
    0.2471    5.0260    0.0000 C   0  0  0  0  0  0  0  0  0  0  0  0
    0.0528    3.5386    0.0000 C   0  0  0  0  0  0  0  0  0  0  0  0
   -0.5300   -0.9235    0.0000 P   0  0  0  0  0  0  0  0  0  0  0  0
   -1.9153   -1.4989    0.0000 C   0  0  0  0  0  0  0  0  0  0  0  0
   -3.1062   -0.5870    0.0000 C   0  0  0  0  0  0  0  0  0  0  0  0
   -4.4914   -1.1625    0.0000 C   0  0  0  0  0  0  0  0  0  0  0  0
   -4.6857   -2.6498    0.0000 C   0  0  0  0  0  0  0  0  0  0  0  0
   -3.4948   -3.5617    0.0000 C   0  0  0  0  0  0  0  0  0  0  0  0
   -2.1095   -2.9863    0.0000 C   0  0  0  0  0  0  0  0  0  0  0  0
    0.6609   -1.8354    0.0000 C   0  0  0  0  0  0  0  0  0  0  0  0
    0.4667   -3.3228    0.0000 C   0  0  0  0  0  0  0  0  0  0  0  0
    1.6576   -4.2347    0.0000 C   0  0  0  0  0  0  0  0  0  0  0  0
    3.0429   -3.6593    0.0000 C   0  0  0  0  0  0  0  0  0  0  0  0
    3.2371   -2.1719    0.0000 C   0  0  0  0  0  0  0  0  0  0  0  0
    2.0462   -1.2600    0.0000 C   0  0  0  0  0  0  0  0  0  0  0  0
  1  2  1  0
  2  3  1  0
  3  4  1  0
  4  5  1  0
  5  6  1  0
  6  7  1  0
  7  8  1  0
  8  9  2  0
  9 10  1  0
 10 11  2  0
 11 12  1  0
 12 13  2  0
  7 14  1  0
 14 15  2  0
 15 16  1  0
 16 17  2  0
 17 18  1  0
 18 19  2  0
  6 20  1  0
 20 21  1  0
 21 22  2  0
 22 23  1  0
 23 24  2  0
 24 25  1  0
 25 26  2  0
 20 27  1  0
 27 28  2  0
 28 29  1  0
 29 30  2  0
 30 31  1  0
 31 32  2  0
 13  8  1  0
 19 14  1  0
 26 21  1  0
 32 27  1  0
M  END
>  <linear_selectivity>  (938) 
64

>  <denticity>  (938) 
2

>  <ligand_class>  (938) 
diphosphine

$$$$
dpph_90C_toluene
     RDKit          2D

 32 35  0  0  0  0  0  0  0  0999 V2000
   -6.6791    2.1488    0.0000 C   0  0  0  0  0  0  0  0  0  0  0  0
   -5.4881    1.2368    0.0000 C   0  0  0  0  0  0  0  0  0  0  0  0
   -4.1029    1.8123    0.0000 C   0  0  0  0  0  0  0  0  0  0  0  0
   -2.9119    0.9003    0.0000 C   0  0  0  0  0  0  0  0  0  0  0  0
   -1.5267    1.4758    0.0000 C   0  0  0  0  0  0  0  0  0  0  0  0
   -0.3357    0.5639    0.0000 C   0  0  0  0  0  0  0  0  0  0  0  0
    1.0495    1.1393    0.0000 P   0  0  0  0  0  0  0  0  0  0  0  0
    2.2404    0.2274    0.0000 C   0  0  0  0  0  0  0  0  0  0  0  0
    2.0462   -1.2600    0.0000 C   0  0  0  0  0  0  0  0  0  0  0  0
    3.2371   -2.1719    0.0000 C   0  0  0  0  0  0  0  0  0  0  0  0
    4.6224   -1.5965    0.0000 C   0  0  0  0  0  0  0  0  0  0  0  0
    4.8166   -0.1091    0.0000 C   0  0  0  0  0  0  0  0  0  0  0  0
    3.6257    0.8028    0.0000 C   0  0  0  0  0  0  0  0  0  0  0  0
    1.2438    2.6267    0.0000 C   0  0  0  0  0  0  0  0  0  0  0  0
    2.6290    3.2021    0.0000 C   0  0  0  0  0  0  0  0  0  0  0  0
    2.8233    4.6895    0.0000 C   0  0  0  0  0  0  0  0  0  0  0  0
    1.6323    5.6014    0.0000 C   0  0  0  0  0  0  0  0  0  0  0  0
    0.2471    5.0260    0.0000 C   0  0  0  0  0  0  0  0  0  0  0  0
    0.0528    3.5386    0.0000 C   0  0  0  0  0  0  0  0  0  0  0  0
   -0.5300   -0.9235    0.0000 P   0  0  0  0  0  0  0  0  0  0  0  0
   -1.9153   -1.4989    0.0000 C   0  0  0  0  0  0  0  0  0  0  0  0
   -3.1062   -0.5870    0.0000 C   0  0  0  0  0  0  0  0  0  0  0  0
   -4.4914   -1.1625    0.0000 C   0  0  0  0  0  0  0  0  0  0  0  0
   -4.6857   -2.6498    0.0000 C   0  0  0  0  0  0  0  0  0  0  0  0
   -3.4948   -3.5617    0.0000 C   0  0  0  0  0  0  0  0  0  0  0  0
   -2.1095   -2.9863    0.0000 C   0  0  0  0  0  0  0  0  0  0  0  0
    0.6609   -1.8354    0.0000 C   0  0  0  0  0  0  0  0  0  0  0  0
    0.4667   -3.3228    0.0000 C   0  0  0  0  0  0  0  0  0  0  0  0
    1.6576   -4.2347    0.0000 C   0  0  0  0  0  0  0  0  0  0  0  0
    3.0429   -3.6593    0.0000 C   0  0  0  0  0  0  0  0  0  0  0  0
    3.2371   -2.1719    0.0000 C   0  0  0  0  0  0  0  0  0  0  0  0
    2.0462   -1.2600    0.0000 C   0  0  0  0  0  0  0  0  0  0  0  0
  1  2  1  0
  2  3  1  0
  3  4  1  0
  4  5  1  0
  5  6  1  0
  6  7  1  0
  7  8  1  0
  8  9  2  0
  9 10  1  0
 10 11  2  0
 11 12  1  0
 12 13  2  0
  7 14  1  0
 14 15  2  0
 15 16  1  0
 16 17  2  0
 17 18  1  0
 18 19  2  0
  6 20  1  0
 20 21  1  0
 21 22  2  0
 22 23  1  0
 23 24  2  0
 24 25  1  0
 25 26  2  0
 20 27  1  0
 27 28  2  0
 28 29  1  0
 29 30  2  0
 30 31  1  0
 31 32  2  0
 13  8  1  0
 19 14  1  0
 26 21  1  0
 32 27  1  0
M  END
>  <linear_selectivity>  (939) 
58

>  <denticity>  (939) 
2

>  <ligand_class>  (939) 
diphosphine

$$$$
dpph_90C_dioxane
     RDKit          2D

 32 35  0  0  0  0  0  0  0  0999 V2000
   -6.6791    2.1488    0.0000 C   0  0  0  0  0  0  0  0  0  0  0  0
   -5.4881    1.2368    0.0000 C   0  0  0  0  0  0  0  0  0  0  0  0
   -4.1029    1.8123    0.0000 C   0  0  0  0  0  0  0  0  0  0  0  0
   -2.9119    0.9003    0.0000 C   0  0  0  0  0  0  0  0  0  0  0  0
   -1.5267    1.4758    0.0000 C   0  0  0  0  0  0  0  0  0  0  0  0
   -0.3357    0.5639    0.0000 C   0  0  0  0  0  0  0  0  0  0  0  0
    1.0495    1.1393    0.0000 P   0  0  0  0  0  0  0  0  0  0  0  0
    2.2404    0.2274    0.0000 C   0  0  0  0  0  0  0  0  0  0  0  0
    2.0462   -1.2600    0.0000 C   0  0  0  0  0  0  0  0  0  0  0  0
    3.2371   -2.1719    0.0000 C   0  0  0  0  0  0  0  0  0  0  0  0
    4.6224   -1.5965    0.0000 C   0  0  0  0  0  0  0  0  0  0  0  0
    4.8166   -0.1091    0.0000 C   0  0  0  0  0  0  0  0  0  0  0  0
    3.6257    0.8028    0.0000 C   0  0  0  0  0  0  0  0  0  0  0  0
    1.2438    2.6267    0.0000 C   0  0  0  0  0  0  0  0  0  0  0  0
    2.6290    3.2021    0.0000 C   0  0  0  0  0  0  0  0  0  0  0  0
    2.8233    4.6895    0.0000 C   0  0  0  0  0  0  0  0  0  0  0  0
    1.6323    5.6014    0.0000 C   0  0  0  0  0  0  0  0  0  0  0  0
    0.2471    5.0260    0.0000 C   0  0  0  0  0  0  0  0  0  0  0  0
    0.0528    3.5386    0.0000 C   0  0  0  0  0  0  0  0  0  0  0  0
   -0.5300   -0.9235    0.0000 P   0  0  0  0  0  0  0  0  0  0  0  0
   -1.9153   -1.4989    0.0000 C   0  0  0  0  0  0  0  0  0  0  0  0
   -3.1062   -0.5870    0.0000 C   0  0  0  0  0  0  0  0  0  0  0  0
   -4.4914   -1.1625    0.0000 C   0  0  0  0  0  0  0  0  0  0  0  0
   -4.6857   -2.6498    0.0000 C   0  0  0  0  0  0  0  0  0  0  0  0
   -3.4948   -3.5617    0.0000 C   0  0  0  0  0  0  0  0  0  0  0  0
   -2.1095   -2.9863    0.0000 C   0  0  0  0  0  0  0  0  0  0  0  0
    0.6609   -1.8354    0.0000 C   0  0  0  0  0  0  0  0  0  0  0  0
    0.4667   -3.3228    0.0000 C   0  0  0  0  0  0  0  0  0  0  0  0
    1.6576   -4.2347    0.0000 C   0  0  0  0  0  0  0  0  0  0  0  0
    3.0429   -3.6593    0.0000 C   0  0  0  0  0  0  0  0  0  0  0  0
    3.2371   -2.1719    0.0000 C   0  0  0  0  0  0  0  0  0  0  0  0
    2.0462   -1.2600    0.0000 C   0  0  0  0  0  0  0  0  0  0  0  0
  1  2  1  0
  2  3  1  0
  3  4  1  0
  4  5  1  0
  5  6  1  0
  6  7  1  0
  7  8  1  0
  8  9  2  0
  9 10  1  0
 10 11  2  0
 11 12  1  0
 12 13  2  0
  7 14  1  0
 14 15  2  0
 15 16  1  0
 16 17  2  0
 17 18  1  0
 18 19  2  0
  6 20  1  0
 20 21  1  0
 21 22  2  0
 22 23  1  0
 23 24  2  0
 24 25  1  0
 25 26  2  0
 20 27  1  0
 27 28  2  0
 28 29  1  0
 29 30  2  0
 30 31  1  0
 31 32  2  0
 13  8  1  0
 19 14  1  0
 26 21  1  0
 32 27  1  0
M  END
>  <linear_selectivity>  (940) 
58

>  <denticity>  (940) 
2

>  <ligand_class>  (940) 
diphosphine

$$$$
dpph_90C_benzene
     RDKit          2D

 32 35  0  0  0  0  0  0  0  0999 V2000
   -6.6791    2.1488    0.0000 C   0  0  0  0  0  0  0  0  0  0  0  0
   -5.4881    1.2368    0.0000 C   0  0  0  0  0  0  0  0  0  0  0  0
   -4.1029    1.8123    0.0000 C   0  0  0  0  0  0  0  0  0  0  0  0
   -2.9119    0.9003    0.0000 C   0  0  0  0  0  0  0  0  0  0  0  0
   -1.5267    1.4758    0.0000 C   0  0  0  0  0  0  0  0  0  0  0  0
   -0.3357    0.5639    0.0000 C   0  0  0  0  0  0  0  0  0  0  0  0
    1.0495    1.1393    0.0000 P   0  0  0  0  0  0  0  0  0  0  0  0
    2.2404    0.2274    0.0000 C   0  0  0  0  0  0  0  0  0  0  0  0
    2.0462   -1.2600    0.0000 C   0  0  0  0  0  0  0  0  0  0  0  0
    3.2371   -2.1719    0.0000 C   0  0  0  0  0  0  0  0  0  0  0  0
    4.6224   -1.5965    0.0000 C   0  0  0  0  0  0  0  0  0  0  0  0
    4.8166   -0.1091    0.0000 C   0  0  0  0  0  0  0  0  0  0  0  0
    3.6257    0.8028    0.0000 C   0  0  0  0  0  0  0  0  0  0  0  0
    1.2438    2.6267    0.0000 C   0  0  0  0  0  0  0  0  0  0  0  0
    2.6290    3.2021    0.0000 C   0  0  0  0  0  0  0  0  0  0  0  0
    2.8233    4.6895    0.0000 C   0  0  0  0  0  0  0  0  0  0  0  0
    1.6323    5.6014    0.0000 C   0  0  0  0  0  0  0  0  0  0  0  0
    0.2471    5.0260    0.0000 C   0  0  0  0  0  0  0  0  0  0  0  0
    0.0528    3.5386    0.0000 C   0  0  0  0  0  0  0  0  0  0  0  0
   -0.5300   -0.9235    0.0000 P   0  0  0  0  0  0  0  0  0  0  0  0
   -1.9153   -1.4989    0.0000 C   0  0  0  0  0  0  0  0  0  0  0  0
   -3.1062   -0.5870    0.0000 C   0  0  0  0  0  0  0  0  0  0  0  0
   -4.4914   -1.1625    0.0000 C   0  0  0  0  0  0  0  0  0  0  0  0
   -4.6857   -2.6498    0.0000 C   0  0  0  0  0  0  0  0  0  0  0  0
   -3.4948   -3.5617    0.0000 C   0  0  0  0  0  0  0  0  0  0  0  0
   -2.1095   -2.9863    0.0000 C   0  0  0  0  0  0  0  0  0  0  0  0
    0.6609   -1.8354    0.0000 C   0  0  0  0  0  0  0  0  0  0  0  0
    0.4667   -3.3228    0.0000 C   0  0  0  0  0  0  0  0  0  0  0  0
    1.6576   -4.2347    0.0000 C   0  0  0  0  0  0  0  0  0  0  0  0
    3.0429   -3.6593    0.0000 C   0  0  0  0  0  0  0  0  0  0  0  0
    3.2371   -2.1719    0.0000 C   0  0  0  0  0  0  0  0  0  0  0  0
    2.0462   -1.2600    0.0000 C   0  0  0  0  0  0  0  0  0  0  0  0
  1  2  1  0
  2  3  1  0
  3  4  1  0
  4  5  1  0
  5  6  1  0
  6  7  1  0
  7  8  1  0
  8  9  2  0
  9 10  1  0
 10 11  2  0
 11 12  1  0
 12 13  2  0
  7 14  1  0
 14 15  2  0
 15 16  1  0
 16 17  2  0
 17 18  1  0
 18 19  2  0
  6 20  1  0
 20 21  1  0
 21 22  2  0
 22 23  1  0
 23 24  2  0
 24 25  1  0
 25 26  2  0
 20 27  1  0
 27 28  2  0
 28 29  1  0
 29 30  2  0
 30 31  1  0
 31 32  2  0
 13  8  1  0
 19 14  1  0
 26 21  1  0
 32 27  1  0
M  END
>  <linear_selectivity>  (941) 
60

>  <denticity>  (941) 
2

>  <ligand_class>  (941) 
diphosphine

$$$$
dpph_90C_xylene
     RDKit          2D

 32 35  0  0  0  0  0  0  0  0999 V2000
   -6.6791    2.1488    0.0000 C   0  0  0  0  0  0  0  0  0  0  0  0
   -5.4881    1.2368    0.0000 C   0  0  0  0  0  0  0  0  0  0  0  0
   -4.1029    1.8123    0.0000 C   0  0  0  0  0  0  0  0  0  0  0  0
   -2.9119    0.9003    0.0000 C   0  0  0  0  0  0  0  0  0  0  0  0
   -1.5267    1.4758    0.0000 C   0  0  0  0  0  0  0  0  0  0  0  0
   -0.3357    0.5639    0.0000 C   0  0  0  0  0  0  0  0  0  0  0  0
    1.0495    1.1393    0.0000 P   0  0  0  0  0  0  0  0  0  0  0  0
    2.2404    0.2274    0.0000 C   0  0  0  0  0  0  0  0  0  0  0  0
    2.0462   -1.2600    0.0000 C   0  0  0  0  0  0  0  0  0  0  0  0
    3.2371   -2.1719    0.0000 C   0  0  0  0  0  0  0  0  0  0  0  0
    4.6224   -1.5965    0.0000 C   0  0  0  0  0  0  0  0  0  0  0  0
    4.8166   -0.1091    0.0000 C   0  0  0  0  0  0  0  0  0  0  0  0
    3.6257    0.8028    0.0000 C   0  0  0  0  0  0  0  0  0  0  0  0
    1.2438    2.6267    0.0000 C   0  0  0  0  0  0  0  0  0  0  0  0
    2.6290    3.2021    0.0000 C   0  0  0  0  0  0  0  0  0  0  0  0
    2.8233    4.6895    0.0000 C   0  0  0  0  0  0  0  0  0  0  0  0
    1.6323    5.6014    0.0000 C   0  0  0  0  0  0  0  0  0  0  0  0
    0.2471    5.0260    0.0000 C   0  0  0  0  0  0  0  0  0  0  0  0
    0.0528    3.5386    0.0000 C   0  0  0  0  0  0  0  0  0  0  0  0
   -0.5300   -0.9235    0.0000 P   0  0  0  0  0  0  0  0  0  0  0  0
   -1.9153   -1.4989    0.0000 C   0  0  0  0  0  0  0  0  0  0  0  0
   -3.1062   -0.5870    0.0000 C   0  0  0  0  0  0  0  0  0  0  0  0
   -4.4914   -1.1625    0.0000 C   0  0  0  0  0  0  0  0  0  0  0  0
   -4.6857   -2.6498    0.0000 C   0  0  0  0  0  0  0  0  0  0  0  0
   -3.4948   -3.5617    0.0000 C   0  0  0  0  0  0  0  0  0  0  0  0
   -2.1095   -2.9863    0.0000 C   0  0  0  0  0  0  0  0  0  0  0  0
    0.6609   -1.8354    0.0000 C   0  0  0  0  0  0  0  0  0  0  0  0
    0.4667   -3.3228    0.0000 C   0  0  0  0  0  0  0  0  0  0  0  0
    1.6576   -4.2347    0.0000 C   0  0  0  0  0  0  0  0  0  0  0  0
    3.0429   -3.6593    0.0000 C   0  0  0  0  0  0  0  0  0  0  0  0
    3.2371   -2.1719    0.0000 C   0  0  0  0  0  0  0  0  0  0  0  0
    2.0462   -1.2600    0.0000 C   0  0  0  0  0  0  0  0  0  0  0  0
  1  2  1  0
  2  3  1  0
  3  4  1  0
  4  5  1  0
  5  6  1  0
  6  7  1  0
  7  8  1  0
  8  9  2  0
  9 10  1  0
 10 11  2  0
 11 12  1  0
 12 13  2  0
  7 14  1  0
 14 15  2  0
 15 16  1  0
 16 17  2  0
 17 18  1  0
 18 19  2  0
  6 20  1  0
 20 21  1  0
 21 22  2  0
 22 23  1  0
 23 24  2  0
 24 25  1  0
 25 26  2  0
 20 27  1  0
 27 28  2  0
 28 29  1  0
 29 30  2  0
 30 31  1  0
 31 32  2  0
 13  8  1  0
 19 14  1  0
 26 21  1  0
 32 27  1  0
M  END
>  <linear_selectivity>  (942) 
63

>  <denticity>  (942) 
2

>  <ligand_class>  (942) 
diphosphine

$$$$
dpph_100C_toluene
     RDKit          2D

 32 35  0  0  0  0  0  0  0  0999 V2000
   -6.6791    2.1488    0.0000 C   0  0  0  0  0  0  0  0  0  0  0  0
   -5.4881    1.2368    0.0000 C   0  0  0  0  0  0  0  0  0  0  0  0
   -4.1029    1.8123    0.0000 C   0  0  0  0  0  0  0  0  0  0  0  0
   -2.9119    0.9003    0.0000 C   0  0  0  0  0  0  0  0  0  0  0  0
   -1.5267    1.4758    0.0000 C   0  0  0  0  0  0  0  0  0  0  0  0
   -0.3357    0.5639    0.0000 C   0  0  0  0  0  0  0  0  0  0  0  0
    1.0495    1.1393    0.0000 P   0  0  0  0  0  0  0  0  0  0  0  0
    2.2404    0.2274    0.0000 C   0  0  0  0  0  0  0  0  0  0  0  0
    2.0462   -1.2600    0.0000 C   0  0  0  0  0  0  0  0  0  0  0  0
    3.2371   -2.1719    0.0000 C   0  0  0  0  0  0  0  0  0  0  0  0
    4.6224   -1.5965    0.0000 C   0  0  0  0  0  0  0  0  0  0  0  0
    4.8166   -0.1091    0.0000 C   0  0  0  0  0  0  0  0  0  0  0  0
    3.6257    0.8028    0.0000 C   0  0  0  0  0  0  0  0  0  0  0  0
    1.2438    2.6267    0.0000 C   0  0  0  0  0  0  0  0  0  0  0  0
    2.6290    3.2021    0.0000 C   0  0  0  0  0  0  0  0  0  0  0  0
    2.8233    4.6895    0.0000 C   0  0  0  0  0  0  0  0  0  0  0  0
    1.6323    5.6014    0.0000 C   0  0  0  0  0  0  0  0  0  0  0  0
    0.2471    5.0260    0.0000 C   0  0  0  0  0  0  0  0  0  0  0  0
    0.0528    3.5386    0.0000 C   0  0  0  0  0  0  0  0  0  0  0  0
   -0.5300   -0.9235    0.0000 P   0  0  0  0  0  0  0  0  0  0  0  0
   -1.9153   -1.4989    0.0000 C   0  0  0  0  0  0  0  0  0  0  0  0
   -3.1062   -0.5870    0.0000 C   0  0  0  0  0  0  0  0  0  0  0  0
   -4.4914   -1.1625    0.0000 C   0  0  0  0  0  0  0  0  0  0  0  0
   -4.6857   -2.6498    0.0000 C   0  0  0  0  0  0  0  0  0  0  0  0
   -3.4948   -3.5617    0.0000 C   0  0  0  0  0  0  0  0  0  0  0  0
   -2.1095   -2.9863    0.0000 C   0  0  0  0  0  0  0  0  0  0  0  0
    0.6609   -1.8354    0.0000 C   0  0  0  0  0  0  0  0  0  0  0  0
    0.4667   -3.3228    0.0000 C   0  0  0  0  0  0  0  0  0  0  0  0
    1.6576   -4.2347    0.0000 C   0  0  0  0  0  0  0  0  0  0  0  0
    3.0429   -3.6593    0.0000 C   0  0  0  0  0  0  0  0  0  0  0  0
    3.2371   -2.1719    0.0000 C   0  0  0  0  0  0  0  0  0  0  0  0
    2.0462   -1.2600    0.0000 C   0  0  0  0  0  0  0  0  0  0  0  0
  1  2  1  0
  2  3  1  0
  3  4  1  0
  4  5  1  0
  5  6  1  0
  6  7  1  0
  7  8  1  0
  8  9  2  0
  9 10  1  0
 10 11  2  0
 11 12  1  0
 12 13  2  0
  7 14  1  0
 14 15  2  0
 15 16  1  0
 16 17  2  0
 17 18  1  0
 18 19  2  0
  6 20  1  0
 20 21  1  0
 21 22  2  0
 22 23  1  0
 23 24  2  0
 24 25  1  0
 25 26  2  0
 20 27  1  0
 27 28  2  0
 28 29  1  0
 29 30  2  0
 30 31  1  0
 31 32  2  0
 13  8  1  0
 19 14  1  0
 26 21  1  0
 32 27  1  0
M  END
>  <linear_selectivity>  (943) 
58

>  <denticity>  (943) 
2

>  <ligand_class>  (943) 
diphosphine

$$$$
dpph_100C_THF
     RDKit          2D

 32 35  0  0  0  0  0  0  0  0999 V2000
   -6.6791    2.1488    0.0000 C   0  0  0  0  0  0  0  0  0  0  0  0
   -5.4881    1.2368    0.0000 C   0  0  0  0  0  0  0  0  0  0  0  0
   -4.1029    1.8123    0.0000 C   0  0  0  0  0  0  0  0  0  0  0  0
   -2.9119    0.9003    0.0000 C   0  0  0  0  0  0  0  0  0  0  0  0
   -1.5267    1.4758    0.0000 C   0  0  0  0  0  0  0  0  0  0  0  0
   -0.3357    0.5639    0.0000 C   0  0  0  0  0  0  0  0  0  0  0  0
    1.0495    1.1393    0.0000 P   0  0  0  0  0  0  0  0  0  0  0  0
    2.2404    0.2274    0.0000 C   0  0  0  0  0  0  0  0  0  0  0  0
    2.0462   -1.2600    0.0000 C   0  0  0  0  0  0  0  0  0  0  0  0
    3.2371   -2.1719    0.0000 C   0  0  0  0  0  0  0  0  0  0  0  0
    4.6224   -1.5965    0.0000 C   0  0  0  0  0  0  0  0  0  0  0  0
    4.8166   -0.1091    0.0000 C   0  0  0  0  0  0  0  0  0  0  0  0
    3.6257    0.8028    0.0000 C   0  0  0  0  0  0  0  0  0  0  0  0
    1.2438    2.6267    0.0000 C   0  0  0  0  0  0  0  0  0  0  0  0
    2.6290    3.2021    0.0000 C   0  0  0  0  0  0  0  0  0  0  0  0
    2.8233    4.6895    0.0000 C   0  0  0  0  0  0  0  0  0  0  0  0
    1.6323    5.6014    0.0000 C   0  0  0  0  0  0  0  0  0  0  0  0
    0.2471    5.0260    0.0000 C   0  0  0  0  0  0  0  0  0  0  0  0
    0.0528    3.5386    0.0000 C   0  0  0  0  0  0  0  0  0  0  0  0
   -0.5300   -0.9235    0.0000 P   0  0  0  0  0  0  0  0  0  0  0  0
   -1.9153   -1.4989    0.0000 C   0  0  0  0  0  0  0  0  0  0  0  0
   -3.1062   -0.5870    0.0000 C   0  0  0  0  0  0  0  0  0  0  0  0
   -4.4914   -1.1625    0.0000 C   0  0  0  0  0  0  0  0  0  0  0  0
   -4.6857   -2.6498    0.0000 C   0  0  0  0  0  0  0  0  0  0  0  0
   -3.4948   -3.5617    0.0000 C   0  0  0  0  0  0  0  0  0  0  0  0
   -2.1095   -2.9863    0.0000 C   0  0  0  0  0  0  0  0  0  0  0  0
    0.6609   -1.8354    0.0000 C   0  0  0  0  0  0  0  0  0  0  0  0
    0.4667   -3.3228    0.0000 C   0  0  0  0  0  0  0  0  0  0  0  0
    1.6576   -4.2347    0.0000 C   0  0  0  0  0  0  0  0  0  0  0  0
    3.0429   -3.6593    0.0000 C   0  0  0  0  0  0  0  0  0  0  0  0
    3.2371   -2.1719    0.0000 C   0  0  0  0  0  0  0  0  0  0  0  0
    2.0462   -1.2600    0.0000 C   0  0  0  0  0  0  0  0  0  0  0  0
  1  2  1  0
  2  3  1  0
  3  4  1  0
  4  5  1  0
  5  6  1  0
  6  7  1  0
  7  8  1  0
  8  9  2  0
  9 10  1  0
 10 11  2  0
 11 12  1  0
 12 13  2  0
  7 14  1  0
 14 15  2  0
 15 16  1  0
 16 17  2  0
 17 18  1  0
 18 19  2  0
  6 20  1  0
 20 21  1  0
 21 22  2  0
 22 23  1  0
 23 24  2  0
 24 25  1  0
 25 26  2  0
 20 27  1  0
 27 28  2  0
 28 29  1  0
 29 30  2  0
 30 31  1  0
 31 32  2  0
 13  8  1  0
 19 14  1  0
 26 21  1  0
 32 27  1  0
M  END
>  <linear_selectivity>  (944) 
52

>  <denticity>  (944) 
2

>  <ligand_class>  (944) 
diphosphine

$$$$
dpph_100C_dioxane
     RDKit          2D

 32 35  0  0  0  0  0  0  0  0999 V2000
   -6.6791    2.1488    0.0000 C   0  0  0  0  0  0  0  0  0  0  0  0
   -5.4881    1.2368    0.0000 C   0  0  0  0  0  0  0  0  0  0  0  0
   -4.1029    1.8123    0.0000 C   0  0  0  0  0  0  0  0  0  0  0  0
   -2.9119    0.9003    0.0000 C   0  0  0  0  0  0  0  0  0  0  0  0
   -1.5267    1.4758    0.0000 C   0  0  0  0  0  0  0  0  0  0  0  0
   -0.3357    0.5639    0.0000 C   0  0  0  0  0  0  0  0  0  0  0  0
    1.0495    1.1393    0.0000 P   0  0  0  0  0  0  0  0  0  0  0  0
    2.2404    0.2274    0.0000 C   0  0  0  0  0  0  0  0  0  0  0  0
    2.0462   -1.2600    0.0000 C   0  0  0  0  0  0  0  0  0  0  0  0
    3.2371   -2.1719    0.0000 C   0  0  0  0  0  0  0  0  0  0  0  0
    4.6224   -1.5965    0.0000 C   0  0  0  0  0  0  0  0  0  0  0  0
    4.8166   -0.1091    0.0000 C   0  0  0  0  0  0  0  0  0  0  0  0
    3.6257    0.8028    0.0000 C   0  0  0  0  0  0  0  0  0  0  0  0
    1.2438    2.6267    0.0000 C   0  0  0  0  0  0  0  0  0  0  0  0
    2.6290    3.2021    0.0000 C   0  0  0  0  0  0  0  0  0  0  0  0
    2.8233    4.6895    0.0000 C   0  0  0  0  0  0  0  0  0  0  0  0
    1.6323    5.6014    0.0000 C   0  0  0  0  0  0  0  0  0  0  0  0
    0.2471    5.0260    0.0000 C   0  0  0  0  0  0  0  0  0  0  0  0
    0.0528    3.5386    0.0000 C   0  0  0  0  0  0  0  0  0  0  0  0
   -0.5300   -0.9235    0.0000 P   0  0  0  0  0  0  0  0  0  0  0  0
   -1.9153   -1.4989    0.0000 C   0  0  0  0  0  0  0  0  0  0  0  0
   -3.1062   -0.5870    0.0000 C   0  0  0  0  0  0  0  0  0  0  0  0
   -4.4914   -1.1625    0.0000 C   0  0  0  0  0  0  0  0  0  0  0  0
   -4.6857   -2.6498    0.0000 C   0  0  0  0  0  0  0  0  0  0  0  0
   -3.4948   -3.5617    0.0000 C   0  0  0  0  0  0  0  0  0  0  0  0
   -2.1095   -2.9863    0.0000 C   0  0  0  0  0  0  0  0  0  0  0  0
    0.6609   -1.8354    0.0000 C   0  0  0  0  0  0  0  0  0  0  0  0
    0.4667   -3.3228    0.0000 C   0  0  0  0  0  0  0  0  0  0  0  0
    1.6576   -4.2347    0.0000 C   0  0  0  0  0  0  0  0  0  0  0  0
    3.0429   -3.6593    0.0000 C   0  0  0  0  0  0  0  0  0  0  0  0
    3.2371   -2.1719    0.0000 C   0  0  0  0  0  0  0  0  0  0  0  0
    2.0462   -1.2600    0.0000 C   0  0  0  0  0  0  0  0  0  0  0  0
  1  2  1  0
  2  3  1  0
  3  4  1  0
  4  5  1  0
  5  6  1  0
  6  7  1  0
  7  8  1  0
  8  9  2  0
  9 10  1  0
 10 11  2  0
 11 12  1  0
 12 13  2  0
  7 14  1  0
 14 15  2  0
 15 16  1  0
 16 17  2  0
 17 18  1  0
 18 19  2  0
  6 20  1  0
 20 21  1  0
 21 22  2  0
 22 23  1  0
 23 24  2  0
 24 25  1  0
 25 26  2  0
 20 27  1  0
 27 28  2  0
 28 29  1  0
 29 30  2  0
 30 31  1  0
 31 32  2  0
 13  8  1  0
 19 14  1  0
 26 21  1  0
 32 27  1  0
M  END
>  <linear_selectivity>  (945) 
54

>  <denticity>  (945) 
2

>  <ligand_class>  (945) 
diphosphine

$$$$
dpph_100C_benzene
     RDKit          2D

 32 35  0  0  0  0  0  0  0  0999 V2000
   -6.6791    2.1488    0.0000 C   0  0  0  0  0  0  0  0  0  0  0  0
   -5.4881    1.2368    0.0000 C   0  0  0  0  0  0  0  0  0  0  0  0
   -4.1029    1.8123    0.0000 C   0  0  0  0  0  0  0  0  0  0  0  0
   -2.9119    0.9003    0.0000 C   0  0  0  0  0  0  0  0  0  0  0  0
   -1.5267    1.4758    0.0000 C   0  0  0  0  0  0  0  0  0  0  0  0
   -0.3357    0.5639    0.0000 C   0  0  0  0  0  0  0  0  0  0  0  0
    1.0495    1.1393    0.0000 P   0  0  0  0  0  0  0  0  0  0  0  0
    2.2404    0.2274    0.0000 C   0  0  0  0  0  0  0  0  0  0  0  0
    2.0462   -1.2600    0.0000 C   0  0  0  0  0  0  0  0  0  0  0  0
    3.2371   -2.1719    0.0000 C   0  0  0  0  0  0  0  0  0  0  0  0
    4.6224   -1.5965    0.0000 C   0  0  0  0  0  0  0  0  0  0  0  0
    4.8166   -0.1091    0.0000 C   0  0  0  0  0  0  0  0  0  0  0  0
    3.6257    0.8028    0.0000 C   0  0  0  0  0  0  0  0  0  0  0  0
    1.2438    2.6267    0.0000 C   0  0  0  0  0  0  0  0  0  0  0  0
    2.6290    3.2021    0.0000 C   0  0  0  0  0  0  0  0  0  0  0  0
    2.8233    4.6895    0.0000 C   0  0  0  0  0  0  0  0  0  0  0  0
    1.6323    5.6014    0.0000 C   0  0  0  0  0  0  0  0  0  0  0  0
    0.2471    5.0260    0.0000 C   0  0  0  0  0  0  0  0  0  0  0  0
    0.0528    3.5386    0.0000 C   0  0  0  0  0  0  0  0  0  0  0  0
   -0.5300   -0.9235    0.0000 P   0  0  0  0  0  0  0  0  0  0  0  0
   -1.9153   -1.4989    0.0000 C   0  0  0  0  0  0  0  0  0  0  0  0
   -3.1062   -0.5870    0.0000 C   0  0  0  0  0  0  0  0  0  0  0  0
   -4.4914   -1.1625    0.0000 C   0  0  0  0  0  0  0  0  0  0  0  0
   -4.6857   -2.6498    0.0000 C   0  0  0  0  0  0  0  0  0  0  0  0
   -3.4948   -3.5617    0.0000 C   0  0  0  0  0  0  0  0  0  0  0  0
   -2.1095   -2.9863    0.0000 C   0  0  0  0  0  0  0  0  0  0  0  0
    0.6609   -1.8354    0.0000 C   0  0  0  0  0  0  0  0  0  0  0  0
    0.4667   -3.3228    0.0000 C   0  0  0  0  0  0  0  0  0  0  0  0
    1.6576   -4.2347    0.0000 C   0  0  0  0  0  0  0  0  0  0  0  0
    3.0429   -3.6593    0.0000 C   0  0  0  0  0  0  0  0  0  0  0  0
    3.2371   -2.1719    0.0000 C   0  0  0  0  0  0  0  0  0  0  0  0
    2.0462   -1.2600    0.0000 C   0  0  0  0  0  0  0  0  0  0  0  0
  1  2  1  0
  2  3  1  0
  3  4  1  0
  4  5  1  0
  5  6  1  0
  6  7  1  0
  7  8  1  0
  8  9  2  0
  9 10  1  0
 10 11  2  0
 11 12  1  0
 12 13  2  0
  7 14  1  0
 14 15  2  0
 15 16  1  0
 16 17  2  0
 17 18  1  0
 18 19  2  0
  6 20  1  0
 20 21  1  0
 21 22  2  0
 22 23  1  0
 23 24  2  0
 24 25  1  0
 25 26  2  0
 20 27  1  0
 27 28  2  0
 28 29  1  0
 29 30  2  0
 30 31  1  0
 31 32  2  0
 13  8  1  0
 19 14  1  0
 26 21  1  0
 32 27  1  0
M  END
>  <linear_selectivity>  (946) 
60

>  <denticity>  (946) 
2

>  <ligand_class>  (946) 
diphosphine

$$$$
dpph_100C_xylene
     RDKit          2D

 32 35  0  0  0  0  0  0  0  0999 V2000
   -6.6791    2.1488    0.0000 C   0  0  0  0  0  0  0  0  0  0  0  0
   -5.4881    1.2368    0.0000 C   0  0  0  0  0  0  0  0  0  0  0  0
   -4.1029    1.8123    0.0000 C   0  0  0  0  0  0  0  0  0  0  0  0
   -2.9119    0.9003    0.0000 C   0  0  0  0  0  0  0  0  0  0  0  0
   -1.5267    1.4758    0.0000 C   0  0  0  0  0  0  0  0  0  0  0  0
   -0.3357    0.5639    0.0000 C   0  0  0  0  0  0  0  0  0  0  0  0
    1.0495    1.1393    0.0000 P   0  0  0  0  0  0  0  0  0  0  0  0
    2.2404    0.2274    0.0000 C   0  0  0  0  0  0  0  0  0  0  0  0
    2.0462   -1.2600    0.0000 C   0  0  0  0  0  0  0  0  0  0  0  0
    3.2371   -2.1719    0.0000 C   0  0  0  0  0  0  0  0  0  0  0  0
    4.6224   -1.5965    0.0000 C   0  0  0  0  0  0  0  0  0  0  0  0
    4.8166   -0.1091    0.0000 C   0  0  0  0  0  0  0  0  0  0  0  0
    3.6257    0.8028    0.0000 C   0  0  0  0  0  0  0  0  0  0  0  0
    1.2438    2.6267    0.0000 C   0  0  0  0  0  0  0  0  0  0  0  0
    2.6290    3.2021    0.0000 C   0  0  0  0  0  0  0  0  0  0  0  0
    2.8233    4.6895    0.0000 C   0  0  0  0  0  0  0  0  0  0  0  0
    1.6323    5.6014    0.0000 C   0  0  0  0  0  0  0  0  0  0  0  0
    0.2471    5.0260    0.0000 C   0  0  0  0  0  0  0  0  0  0  0  0
    0.0528    3.5386    0.0000 C   0  0  0  0  0  0  0  0  0  0  0  0
   -0.5300   -0.9235    0.0000 P   0  0  0  0  0  0  0  0  0  0  0  0
   -1.9153   -1.4989    0.0000 C   0  0  0  0  0  0  0  0  0  0  0  0
   -3.1062   -0.5870    0.0000 C   0  0  0  0  0  0  0  0  0  0  0  0
   -4.4914   -1.1625    0.0000 C   0  0  0  0  0  0  0  0  0  0  0  0
   -4.6857   -2.6498    0.0000 C   0  0  0  0  0  0  0  0  0  0  0  0
   -3.4948   -3.5617    0.0000 C   0  0  0  0  0  0  0  0  0  0  0  0
   -2.1095   -2.9863    0.0000 C   0  0  0  0  0  0  0  0  0  0  0  0
    0.6609   -1.8354    0.0000 C   0  0  0  0  0  0  0  0  0  0  0  0
    0.4667   -3.3228    0.0000 C   0  0  0  0  0  0  0  0  0  0  0  0
    1.6576   -4.2347    0.0000 C   0  0  0  0  0  0  0  0  0  0  0  0
    3.0429   -3.6593    0.0000 C   0  0  0  0  0  0  0  0  0  0  0  0
    3.2371   -2.1719    0.0000 C   0  0  0  0  0  0  0  0  0  0  0  0
    2.0462   -1.2600    0.0000 C   0  0  0  0  0  0  0  0  0  0  0  0
  1  2  1  0
  2  3  1  0
  3  4  1  0
  4  5  1  0
  5  6  1  0
  6  7  1  0
  7  8  1  0
  8  9  2  0
  9 10  1  0
 10 11  2  0
 11 12  1  0
 12 13  2  0
  7 14  1  0
 14 15  2  0
 15 16  1  0
 16 17  2  0
 17 18  1  0
 18 19  2  0
  6 20  1  0
 20 21  1  0
 21 22  2  0
 22 23  1  0
 23 24  2  0
 24 25  1  0
 25 26  2  0
 20 27  1  0
 27 28  2  0
 28 29  1  0
 29 30  2  0
 30 31  1  0
 31 32  2  0
 13  8  1  0
 19 14  1  0
 26 21  1  0
 32 27  1  0
M  END
>  <linear_selectivity>  (947) 
60

>  <denticity>  (947) 
2

>  <ligand_class>  (947) 
diphosphine

$$$$
dpph_110C_toluene
     RDKit          2D

 32 35  0  0  0  0  0  0  0  0999 V2000
   -6.6791    2.1488    0.0000 C   0  0  0  0  0  0  0  0  0  0  0  0
   -5.4881    1.2368    0.0000 C   0  0  0  0  0  0  0  0  0  0  0  0
   -4.1029    1.8123    0.0000 C   0  0  0  0  0  0  0  0  0  0  0  0
   -2.9119    0.9003    0.0000 C   0  0  0  0  0  0  0  0  0  0  0  0
   -1.5267    1.4758    0.0000 C   0  0  0  0  0  0  0  0  0  0  0  0
   -0.3357    0.5639    0.0000 C   0  0  0  0  0  0  0  0  0  0  0  0
    1.0495    1.1393    0.0000 P   0  0  0  0  0  0  0  0  0  0  0  0
    2.2404    0.2274    0.0000 C   0  0  0  0  0  0  0  0  0  0  0  0
    2.0462   -1.2600    0.0000 C   0  0  0  0  0  0  0  0  0  0  0  0
    3.2371   -2.1719    0.0000 C   0  0  0  0  0  0  0  0  0  0  0  0
    4.6224   -1.5965    0.0000 C   0  0  0  0  0  0  0  0  0  0  0  0
    4.8166   -0.1091    0.0000 C   0  0  0  0  0  0  0  0  0  0  0  0
    3.6257    0.8028    0.0000 C   0  0  0  0  0  0  0  0  0  0  0  0
    1.2438    2.6267    0.0000 C   0  0  0  0  0  0  0  0  0  0  0  0
    2.6290    3.2021    0.0000 C   0  0  0  0  0  0  0  0  0  0  0  0
    2.8233    4.6895    0.0000 C   0  0  0  0  0  0  0  0  0  0  0  0
    1.6323    5.6014    0.0000 C   0  0  0  0  0  0  0  0  0  0  0  0
    0.2471    5.0260    0.0000 C   0  0  0  0  0  0  0  0  0  0  0  0
    0.0528    3.5386    0.0000 C   0  0  0  0  0  0  0  0  0  0  0  0
   -0.5300   -0.9235    0.0000 P   0  0  0  0  0  0  0  0  0  0  0  0
   -1.9153   -1.4989    0.0000 C   0  0  0  0  0  0  0  0  0  0  0  0
   -3.1062   -0.5870    0.0000 C   0  0  0  0  0  0  0  0  0  0  0  0
   -4.4914   -1.1625    0.0000 C   0  0  0  0  0  0  0  0  0  0  0  0
   -4.6857   -2.6498    0.0000 C   0  0  0  0  0  0  0  0  0  0  0  0
   -3.4948   -3.5617    0.0000 C   0  0  0  0  0  0  0  0  0  0  0  0
   -2.1095   -2.9863    0.0000 C   0  0  0  0  0  0  0  0  0  0  0  0
    0.6609   -1.8354    0.0000 C   0  0  0  0  0  0  0  0  0  0  0  0
    0.4667   -3.3228    0.0000 C   0  0  0  0  0  0  0  0  0  0  0  0
    1.6576   -4.2347    0.0000 C   0  0  0  0  0  0  0  0  0  0  0  0
    3.0429   -3.6593    0.0000 C   0  0  0  0  0  0  0  0  0  0  0  0
    3.2371   -2.1719    0.0000 C   0  0  0  0  0  0  0  0  0  0  0  0
    2.0462   -1.2600    0.0000 C   0  0  0  0  0  0  0  0  0  0  0  0
  1  2  1  0
  2  3  1  0
  3  4  1  0
  4  5  1  0
  5  6  1  0
  6  7  1  0
  7  8  1  0
  8  9  2  0
  9 10  1  0
 10 11  2  0
 11 12  1  0
 12 13  2  0
  7 14  1  0
 14 15  2  0
 15 16  1  0
 16 17  2  0
 17 18  1  0
 18 19  2  0
  6 20  1  0
 20 21  1  0
 21 22  2  0
 22 23  1  0
 23 24  2  0
 24 25  1  0
 25 26  2  0
 20 27  1  0
 27 28  2  0
 28 29  1  0
 29 30  2  0
 30 31  1  0
 31 32  2  0
 13  8  1  0
 19 14  1  0
 26 21  1  0
 32 27  1  0
M  END
>  <linear_selectivity>  (948) 
54

>  <denticity>  (948) 
2

>  <ligand_class>  (948) 
diphosphine

$$$$
dpph_110C_THF
     RDKit          2D

 32 35  0  0  0  0  0  0  0  0999 V2000
   -6.6791    2.1488    0.0000 C   0  0  0  0  0  0  0  0  0  0  0  0
   -5.4881    1.2368    0.0000 C   0  0  0  0  0  0  0  0  0  0  0  0
   -4.1029    1.8123    0.0000 C   0  0  0  0  0  0  0  0  0  0  0  0
   -2.9119    0.9003    0.0000 C   0  0  0  0  0  0  0  0  0  0  0  0
   -1.5267    1.4758    0.0000 C   0  0  0  0  0  0  0  0  0  0  0  0
   -0.3357    0.5639    0.0000 C   0  0  0  0  0  0  0  0  0  0  0  0
    1.0495    1.1393    0.0000 P   0  0  0  0  0  0  0  0  0  0  0  0
    2.2404    0.2274    0.0000 C   0  0  0  0  0  0  0  0  0  0  0  0
    2.0462   -1.2600    0.0000 C   0  0  0  0  0  0  0  0  0  0  0  0
    3.2371   -2.1719    0.0000 C   0  0  0  0  0  0  0  0  0  0  0  0
    4.6224   -1.5965    0.0000 C   0  0  0  0  0  0  0  0  0  0  0  0
    4.8166   -0.1091    0.0000 C   0  0  0  0  0  0  0  0  0  0  0  0
    3.6257    0.8028    0.0000 C   0  0  0  0  0  0  0  0  0  0  0  0
    1.2438    2.6267    0.0000 C   0  0  0  0  0  0  0  0  0  0  0  0
    2.6290    3.2021    0.0000 C   0  0  0  0  0  0  0  0  0  0  0  0
    2.8233    4.6895    0.0000 C   0  0  0  0  0  0  0  0  0  0  0  0
    1.6323    5.6014    0.0000 C   0  0  0  0  0  0  0  0  0  0  0  0
    0.2471    5.0260    0.0000 C   0  0  0  0  0  0  0  0  0  0  0  0
    0.0528    3.5386    0.0000 C   0  0  0  0  0  0  0  0  0  0  0  0
   -0.5300   -0.9235    0.0000 P   0  0  0  0  0  0  0  0  0  0  0  0
   -1.9153   -1.4989    0.0000 C   0  0  0  0  0  0  0  0  0  0  0  0
   -3.1062   -0.5870    0.0000 C   0  0  0  0  0  0  0  0  0  0  0  0
   -4.4914   -1.1625    0.0000 C   0  0  0  0  0  0  0  0  0  0  0  0
   -4.6857   -2.6498    0.0000 C   0  0  0  0  0  0  0  0  0  0  0  0
   -3.4948   -3.5617    0.0000 C   0  0  0  0  0  0  0  0  0  0  0  0
   -2.1095   -2.9863    0.0000 C   0  0  0  0  0  0  0  0  0  0  0  0
    0.6609   -1.8354    0.0000 C   0  0  0  0  0  0  0  0  0  0  0  0
    0.4667   -3.3228    0.0000 C   0  0  0  0  0  0  0  0  0  0  0  0
    1.6576   -4.2347    0.0000 C   0  0  0  0  0  0  0  0  0  0  0  0
    3.0429   -3.6593    0.0000 C   0  0  0  0  0  0  0  0  0  0  0  0
    3.2371   -2.1719    0.0000 C   0  0  0  0  0  0  0  0  0  0  0  0
    2.0462   -1.2600    0.0000 C   0  0  0  0  0  0  0  0  0  0  0  0
  1  2  1  0
  2  3  1  0
  3  4  1  0
  4  5  1  0
  5  6  1  0
  6  7  1  0
  7  8  1  0
  8  9  2  0
  9 10  1  0
 10 11  2  0
 11 12  1  0
 12 13  2  0
  7 14  1  0
 14 15  2  0
 15 16  1  0
 16 17  2  0
 17 18  1  0
 18 19  2  0
  6 20  1  0
 20 21  1  0
 21 22  2  0
 22 23  1  0
 23 24  2  0
 24 25  1  0
 25 26  2  0
 20 27  1  0
 27 28  2  0
 28 29  1  0
 29 30  2  0
 30 31  1  0
 31 32  2  0
 13  8  1  0
 19 14  1  0
 26 21  1  0
 32 27  1  0
M  END
>  <linear_selectivity>  (949) 
49

>  <denticity>  (949) 
2

>  <ligand_class>  (949) 
diphosphine

$$$$
dpph_110C_dioxane
     RDKit          2D

 32 35  0  0  0  0  0  0  0  0999 V2000
   -6.6791    2.1488    0.0000 C   0  0  0  0  0  0  0  0  0  0  0  0
   -5.4881    1.2368    0.0000 C   0  0  0  0  0  0  0  0  0  0  0  0
   -4.1029    1.8123    0.0000 C   0  0  0  0  0  0  0  0  0  0  0  0
   -2.9119    0.9003    0.0000 C   0  0  0  0  0  0  0  0  0  0  0  0
   -1.5267    1.4758    0.0000 C   0  0  0  0  0  0  0  0  0  0  0  0
   -0.3357    0.5639    0.0000 C   0  0  0  0  0  0  0  0  0  0  0  0
    1.0495    1.1393    0.0000 P   0  0  0  0  0  0  0  0  0  0  0  0
    2.2404    0.2274    0.0000 C   0  0  0  0  0  0  0  0  0  0  0  0
    2.0462   -1.2600    0.0000 C   0  0  0  0  0  0  0  0  0  0  0  0
    3.2371   -2.1719    0.0000 C   0  0  0  0  0  0  0  0  0  0  0  0
    4.6224   -1.5965    0.0000 C   0  0  0  0  0  0  0  0  0  0  0  0
    4.8166   -0.1091    0.0000 C   0  0  0  0  0  0  0  0  0  0  0  0
    3.6257    0.8028    0.0000 C   0  0  0  0  0  0  0  0  0  0  0  0
    1.2438    2.6267    0.0000 C   0  0  0  0  0  0  0  0  0  0  0  0
    2.6290    3.2021    0.0000 C   0  0  0  0  0  0  0  0  0  0  0  0
    2.8233    4.6895    0.0000 C   0  0  0  0  0  0  0  0  0  0  0  0
    1.6323    5.6014    0.0000 C   0  0  0  0  0  0  0  0  0  0  0  0
    0.2471    5.0260    0.0000 C   0  0  0  0  0  0  0  0  0  0  0  0
    0.0528    3.5386    0.0000 C   0  0  0  0  0  0  0  0  0  0  0  0
   -0.5300   -0.9235    0.0000 P   0  0  0  0  0  0  0  0  0  0  0  0
   -1.9153   -1.4989    0.0000 C   0  0  0  0  0  0  0  0  0  0  0  0
   -3.1062   -0.5870    0.0000 C   0  0  0  0  0  0  0  0  0  0  0  0
   -4.4914   -1.1625    0.0000 C   0  0  0  0  0  0  0  0  0  0  0  0
   -4.6857   -2.6498    0.0000 C   0  0  0  0  0  0  0  0  0  0  0  0
   -3.4948   -3.5617    0.0000 C   0  0  0  0  0  0  0  0  0  0  0  0
   -2.1095   -2.9863    0.0000 C   0  0  0  0  0  0  0  0  0  0  0  0
    0.6609   -1.8354    0.0000 C   0  0  0  0  0  0  0  0  0  0  0  0
    0.4667   -3.3228    0.0000 C   0  0  0  0  0  0  0  0  0  0  0  0
    1.6576   -4.2347    0.0000 C   0  0  0  0  0  0  0  0  0  0  0  0
    3.0429   -3.6593    0.0000 C   0  0  0  0  0  0  0  0  0  0  0  0
    3.2371   -2.1719    0.0000 C   0  0  0  0  0  0  0  0  0  0  0  0
    2.0462   -1.2600    0.0000 C   0  0  0  0  0  0  0  0  0  0  0  0
  1  2  1  0
  2  3  1  0
  3  4  1  0
  4  5  1  0
  5  6  1  0
  6  7  1  0
  7  8  1  0
  8  9  2  0
  9 10  1  0
 10 11  2  0
 11 12  1  0
 12 13  2  0
  7 14  1  0
 14 15  2  0
 15 16  1  0
 16 17  2  0
 17 18  1  0
 18 19  2  0
  6 20  1  0
 20 21  1  0
 21 22  2  0
 22 23  1  0
 23 24  2  0
 24 25  1  0
 25 26  2  0
 20 27  1  0
 27 28  2  0
 28 29  1  0
 29 30  2  0
 30 31  1  0
 31 32  2  0
 13  8  1  0
 19 14  1  0
 26 21  1  0
 32 27  1  0
M  END
>  <linear_selectivity>  (950) 
52

>  <denticity>  (950) 
2

>  <ligand_class>  (950) 
diphosphine

$$$$
dpph_120C_toluene
     RDKit          2D

 32 35  0  0  0  0  0  0  0  0999 V2000
   -6.6791    2.1488    0.0000 C   0  0  0  0  0  0  0  0  0  0  0  0
   -5.4881    1.2368    0.0000 C   0  0  0  0  0  0  0  0  0  0  0  0
   -4.1029    1.8123    0.0000 C   0  0  0  0  0  0  0  0  0  0  0  0
   -2.9119    0.9003    0.0000 C   0  0  0  0  0  0  0  0  0  0  0  0
   -1.5267    1.4758    0.0000 C   0  0  0  0  0  0  0  0  0  0  0  0
   -0.3357    0.5639    0.0000 C   0  0  0  0  0  0  0  0  0  0  0  0
    1.0495    1.1393    0.0000 P   0  0  0  0  0  0  0  0  0  0  0  0
    2.2404    0.2274    0.0000 C   0  0  0  0  0  0  0  0  0  0  0  0
    2.0462   -1.2600    0.0000 C   0  0  0  0  0  0  0  0  0  0  0  0
    3.2371   -2.1719    0.0000 C   0  0  0  0  0  0  0  0  0  0  0  0
    4.6224   -1.5965    0.0000 C   0  0  0  0  0  0  0  0  0  0  0  0
    4.8166   -0.1091    0.0000 C   0  0  0  0  0  0  0  0  0  0  0  0
    3.6257    0.8028    0.0000 C   0  0  0  0  0  0  0  0  0  0  0  0
    1.2438    2.6267    0.0000 C   0  0  0  0  0  0  0  0  0  0  0  0
    2.6290    3.2021    0.0000 C   0  0  0  0  0  0  0  0  0  0  0  0
    2.8233    4.6895    0.0000 C   0  0  0  0  0  0  0  0  0  0  0  0
    1.6323    5.6014    0.0000 C   0  0  0  0  0  0  0  0  0  0  0  0
    0.2471    5.0260    0.0000 C   0  0  0  0  0  0  0  0  0  0  0  0
    0.0528    3.5386    0.0000 C   0  0  0  0  0  0  0  0  0  0  0  0
   -0.5300   -0.9235    0.0000 P   0  0  0  0  0  0  0  0  0  0  0  0
   -1.9153   -1.4989    0.0000 C   0  0  0  0  0  0  0  0  0  0  0  0
   -3.1062   -0.5870    0.0000 C   0  0  0  0  0  0  0  0  0  0  0  0
   -4.4914   -1.1625    0.0000 C   0  0  0  0  0  0  0  0  0  0  0  0
   -4.6857   -2.6498    0.0000 C   0  0  0  0  0  0  0  0  0  0  0  0
   -3.4948   -3.5617    0.0000 C   0  0  0  0  0  0  0  0  0  0  0  0
   -2.1095   -2.9863    0.0000 C   0  0  0  0  0  0  0  0  0  0  0  0
    0.6609   -1.8354    0.0000 C   0  0  0  0  0  0  0  0  0  0  0  0
    0.4667   -3.3228    0.0000 C   0  0  0  0  0  0  0  0  0  0  0  0
    1.6576   -4.2347    0.0000 C   0  0  0  0  0  0  0  0  0  0  0  0
    3.0429   -3.6593    0.0000 C   0  0  0  0  0  0  0  0  0  0  0  0
    3.2371   -2.1719    0.0000 C   0  0  0  0  0  0  0  0  0  0  0  0
    2.0462   -1.2600    0.0000 C   0  0  0  0  0  0  0  0  0  0  0  0
  1  2  1  0
  2  3  1  0
  3  4  1  0
  4  5  1  0
  5  6  1  0
  6  7  1  0
  7  8  1  0
  8  9  2  0
  9 10  1  0
 10 11  2  0
 11 12  1  0
 12 13  2  0
  7 14  1  0
 14 15  2  0
 15 16  1  0
 16 17  2  0
 17 18  1  0
 18 19  2  0
  6 20  1  0
 20 21  1  0
 21 22  2  0
 22 23  1  0
 23 24  2  0
 24 25  1  0
 25 26  2  0
 20 27  1  0
 27 28  2  0
 28 29  1  0
 29 30  2  0
 30 31  1  0
 31 32  2  0
 13  8  1  0
 19 14  1  0
 26 21  1  0
 32 27  1  0
M  END
>  <linear_selectivity>  (951) 
54

>  <denticity>  (951) 
2

>  <ligand_class>  (951) 
diphosphine

$$$$
dpph_120C_THF
     RDKit          2D

 32 35  0  0  0  0  0  0  0  0999 V2000
   -6.6791    2.1488    0.0000 C   0  0  0  0  0  0  0  0  0  0  0  0
   -5.4881    1.2368    0.0000 C   0  0  0  0  0  0  0  0  0  0  0  0
   -4.1029    1.8123    0.0000 C   0  0  0  0  0  0  0  0  0  0  0  0
   -2.9119    0.9003    0.0000 C   0  0  0  0  0  0  0  0  0  0  0  0
   -1.5267    1.4758    0.0000 C   0  0  0  0  0  0  0  0  0  0  0  0
   -0.3357    0.5639    0.0000 C   0  0  0  0  0  0  0  0  0  0  0  0
    1.0495    1.1393    0.0000 P   0  0  0  0  0  0  0  0  0  0  0  0
    2.2404    0.2274    0.0000 C   0  0  0  0  0  0  0  0  0  0  0  0
    2.0462   -1.2600    0.0000 C   0  0  0  0  0  0  0  0  0  0  0  0
    3.2371   -2.1719    0.0000 C   0  0  0  0  0  0  0  0  0  0  0  0
    4.6224   -1.5965    0.0000 C   0  0  0  0  0  0  0  0  0  0  0  0
    4.8166   -0.1091    0.0000 C   0  0  0  0  0  0  0  0  0  0  0  0
    3.6257    0.8028    0.0000 C   0  0  0  0  0  0  0  0  0  0  0  0
    1.2438    2.6267    0.0000 C   0  0  0  0  0  0  0  0  0  0  0  0
    2.6290    3.2021    0.0000 C   0  0  0  0  0  0  0  0  0  0  0  0
    2.8233    4.6895    0.0000 C   0  0  0  0  0  0  0  0  0  0  0  0
    1.6323    5.6014    0.0000 C   0  0  0  0  0  0  0  0  0  0  0  0
    0.2471    5.0260    0.0000 C   0  0  0  0  0  0  0  0  0  0  0  0
    0.0528    3.5386    0.0000 C   0  0  0  0  0  0  0  0  0  0  0  0
   -0.5300   -0.9235    0.0000 P   0  0  0  0  0  0  0  0  0  0  0  0
   -1.9153   -1.4989    0.0000 C   0  0  0  0  0  0  0  0  0  0  0  0
   -3.1062   -0.5870    0.0000 C   0  0  0  0  0  0  0  0  0  0  0  0
   -4.4914   -1.1625    0.0000 C   0  0  0  0  0  0  0  0  0  0  0  0
   -4.6857   -2.6498    0.0000 C   0  0  0  0  0  0  0  0  0  0  0  0
   -3.4948   -3.5617    0.0000 C   0  0  0  0  0  0  0  0  0  0  0  0
   -2.1095   -2.9863    0.0000 C   0  0  0  0  0  0  0  0  0  0  0  0
    0.6609   -1.8354    0.0000 C   0  0  0  0  0  0  0  0  0  0  0  0
    0.4667   -3.3228    0.0000 C   0  0  0  0  0  0  0  0  0  0  0  0
    1.6576   -4.2347    0.0000 C   0  0  0  0  0  0  0  0  0  0  0  0
    3.0429   -3.6593    0.0000 C   0  0  0  0  0  0  0  0  0  0  0  0
    3.2371   -2.1719    0.0000 C   0  0  0  0  0  0  0  0  0  0  0  0
    2.0462   -1.2600    0.0000 C   0  0  0  0  0  0  0  0  0  0  0  0
  1  2  1  0
  2  3  1  0
  3  4  1  0
  4  5  1  0
  5  6  1  0
  6  7  1  0
  7  8  1  0
  8  9  2  0
  9 10  1  0
 10 11  2  0
 11 12  1  0
 12 13  2  0
  7 14  1  0
 14 15  2  0
 15 16  1  0
 16 17  2  0
 17 18  1  0
 18 19  2  0
  6 20  1  0
 20 21  1  0
 21 22  2  0
 22 23  1  0
 23 24  2  0
 24 25  1  0
 25 26  2  0
 20 27  1  0
 27 28  2  0
 28 29  1  0
 29 30  2  0
 30 31  1  0
 31 32  2  0
 13  8  1  0
 19 14  1  0
 26 21  1  0
 32 27  1  0
M  END
>  <linear_selectivity>  (952) 
52

>  <denticity>  (952) 
2

>  <ligand_class>  (952) 
diphosphine

$$$$
dpph_120C_hexane
     RDKit          2D

 32 35  0  0  0  0  0  0  0  0999 V2000
   -6.6791    2.1488    0.0000 C   0  0  0  0  0  0  0  0  0  0  0  0
   -5.4881    1.2368    0.0000 C   0  0  0  0  0  0  0  0  0  0  0  0
   -4.1029    1.8123    0.0000 C   0  0  0  0  0  0  0  0  0  0  0  0
   -2.9119    0.9003    0.0000 C   0  0  0  0  0  0  0  0  0  0  0  0
   -1.5267    1.4758    0.0000 C   0  0  0  0  0  0  0  0  0  0  0  0
   -0.3357    0.5639    0.0000 C   0  0  0  0  0  0  0  0  0  0  0  0
    1.0495    1.1393    0.0000 P   0  0  0  0  0  0  0  0  0  0  0  0
    2.2404    0.2274    0.0000 C   0  0  0  0  0  0  0  0  0  0  0  0
    2.0462   -1.2600    0.0000 C   0  0  0  0  0  0  0  0  0  0  0  0
    3.2371   -2.1719    0.0000 C   0  0  0  0  0  0  0  0  0  0  0  0
    4.6224   -1.5965    0.0000 C   0  0  0  0  0  0  0  0  0  0  0  0
    4.8166   -0.1091    0.0000 C   0  0  0  0  0  0  0  0  0  0  0  0
    3.6257    0.8028    0.0000 C   0  0  0  0  0  0  0  0  0  0  0  0
    1.2438    2.6267    0.0000 C   0  0  0  0  0  0  0  0  0  0  0  0
    2.6290    3.2021    0.0000 C   0  0  0  0  0  0  0  0  0  0  0  0
    2.8233    4.6895    0.0000 C   0  0  0  0  0  0  0  0  0  0  0  0
    1.6323    5.6014    0.0000 C   0  0  0  0  0  0  0  0  0  0  0  0
    0.2471    5.0260    0.0000 C   0  0  0  0  0  0  0  0  0  0  0  0
    0.0528    3.5386    0.0000 C   0  0  0  0  0  0  0  0  0  0  0  0
   -0.5300   -0.9235    0.0000 P   0  0  0  0  0  0  0  0  0  0  0  0
   -1.9153   -1.4989    0.0000 C   0  0  0  0  0  0  0  0  0  0  0  0
   -3.1062   -0.5870    0.0000 C   0  0  0  0  0  0  0  0  0  0  0  0
   -4.4914   -1.1625    0.0000 C   0  0  0  0  0  0  0  0  0  0  0  0
   -4.6857   -2.6498    0.0000 C   0  0  0  0  0  0  0  0  0  0  0  0
   -3.4948   -3.5617    0.0000 C   0  0  0  0  0  0  0  0  0  0  0  0
   -2.1095   -2.9863    0.0000 C   0  0  0  0  0  0  0  0  0  0  0  0
    0.6609   -1.8354    0.0000 C   0  0  0  0  0  0  0  0  0  0  0  0
    0.4667   -3.3228    0.0000 C   0  0  0  0  0  0  0  0  0  0  0  0
    1.6576   -4.2347    0.0000 C   0  0  0  0  0  0  0  0  0  0  0  0
    3.0429   -3.6593    0.0000 C   0  0  0  0  0  0  0  0  0  0  0  0
    3.2371   -2.1719    0.0000 C   0  0  0  0  0  0  0  0  0  0  0  0
    2.0462   -1.2600    0.0000 C   0  0  0  0  0  0  0  0  0  0  0  0
  1  2  1  0
  2  3  1  0
  3  4  1  0
  4  5  1  0
  5  6  1  0
  6  7  1  0
  7  8  1  0
  8  9  2  0
  9 10  1  0
 10 11  2  0
 11 12  1  0
 12 13  2  0
  7 14  1  0
 14 15  2  0
 15 16  1  0
 16 17  2  0
 17 18  1  0
 18 19  2  0
  6 20  1  0
 20 21  1  0
 21 22  2  0
 22 23  1  0
 23 24  2  0
 24 25  1  0
 25 26  2  0
 20 27  1  0
 27 28  2  0
 28 29  1  0
 29 30  2  0
 30 31  1  0
 31 32  2  0
 13  8  1  0
 19 14  1  0
 26 21  1  0
 32 27  1  0
M  END
>  <linear_selectivity>  (953) 
52

>  <denticity>  (953) 
2

>  <ligand_class>  (953) 
diphosphine

$$$$
dpph_120C_benzene
     RDKit          2D

 32 35  0  0  0  0  0  0  0  0999 V2000
   -6.6791    2.1488    0.0000 C   0  0  0  0  0  0  0  0  0  0  0  0
   -5.4881    1.2368    0.0000 C   0  0  0  0  0  0  0  0  0  0  0  0
   -4.1029    1.8123    0.0000 C   0  0  0  0  0  0  0  0  0  0  0  0
   -2.9119    0.9003    0.0000 C   0  0  0  0  0  0  0  0  0  0  0  0
   -1.5267    1.4758    0.0000 C   0  0  0  0  0  0  0  0  0  0  0  0
   -0.3357    0.5639    0.0000 C   0  0  0  0  0  0  0  0  0  0  0  0
    1.0495    1.1393    0.0000 P   0  0  0  0  0  0  0  0  0  0  0  0
    2.2404    0.2274    0.0000 C   0  0  0  0  0  0  0  0  0  0  0  0
    2.0462   -1.2600    0.0000 C   0  0  0  0  0  0  0  0  0  0  0  0
    3.2371   -2.1719    0.0000 C   0  0  0  0  0  0  0  0  0  0  0  0
    4.6224   -1.5965    0.0000 C   0  0  0  0  0  0  0  0  0  0  0  0
    4.8166   -0.1091    0.0000 C   0  0  0  0  0  0  0  0  0  0  0  0
    3.6257    0.8028    0.0000 C   0  0  0  0  0  0  0  0  0  0  0  0
    1.2438    2.6267    0.0000 C   0  0  0  0  0  0  0  0  0  0  0  0
    2.6290    3.2021    0.0000 C   0  0  0  0  0  0  0  0  0  0  0  0
    2.8233    4.6895    0.0000 C   0  0  0  0  0  0  0  0  0  0  0  0
    1.6323    5.6014    0.0000 C   0  0  0  0  0  0  0  0  0  0  0  0
    0.2471    5.0260    0.0000 C   0  0  0  0  0  0  0  0  0  0  0  0
    0.0528    3.5386    0.0000 C   0  0  0  0  0  0  0  0  0  0  0  0
   -0.5300   -0.9235    0.0000 P   0  0  0  0  0  0  0  0  0  0  0  0
   -1.9153   -1.4989    0.0000 C   0  0  0  0  0  0  0  0  0  0  0  0
   -3.1062   -0.5870    0.0000 C   0  0  0  0  0  0  0  0  0  0  0  0
   -4.4914   -1.1625    0.0000 C   0  0  0  0  0  0  0  0  0  0  0  0
   -4.6857   -2.6498    0.0000 C   0  0  0  0  0  0  0  0  0  0  0  0
   -3.4948   -3.5617    0.0000 C   0  0  0  0  0  0  0  0  0  0  0  0
   -2.1095   -2.9863    0.0000 C   0  0  0  0  0  0  0  0  0  0  0  0
    0.6609   -1.8354    0.0000 C   0  0  0  0  0  0  0  0  0  0  0  0
    0.4667   -3.3228    0.0000 C   0  0  0  0  0  0  0  0  0  0  0  0
    1.6576   -4.2347    0.0000 C   0  0  0  0  0  0  0  0  0  0  0  0
    3.0429   -3.6593    0.0000 C   0  0  0  0  0  0  0  0  0  0  0  0
    3.2371   -2.1719    0.0000 C   0  0  0  0  0  0  0  0  0  0  0  0
    2.0462   -1.2600    0.0000 C   0  0  0  0  0  0  0  0  0  0  0  0
  1  2  1  0
  2  3  1  0
  3  4  1  0
  4  5  1  0
  5  6  1  0
  6  7  1  0
  7  8  1  0
  8  9  2  0
  9 10  1  0
 10 11  2  0
 11 12  1  0
 12 13  2  0
  7 14  1  0
 14 15  2  0
 15 16  1  0
 16 17  2  0
 17 18  1  0
 18 19  2  0
  6 20  1  0
 20 21  1  0
 21 22  2  0
 22 23  1  0
 23 24  2  0
 24 25  1  0
 25 26  2  0
 20 27  1  0
 27 28  2  0
 28 29  1  0
 29 30  2  0
 30 31  1  0
 31 32  2  0
 13  8  1  0
 19 14  1  0
 26 21  1  0
 32 27  1  0
M  END
>  <linear_selectivity>  (954) 
49

>  <denticity>  (954) 
2

>  <ligand_class>  (954) 
diphosphine

$$$$
dpph_130C_toluene
     RDKit          2D

 32 35  0  0  0  0  0  0  0  0999 V2000
   -6.6791    2.1488    0.0000 C   0  0  0  0  0  0  0  0  0  0  0  0
   -5.4881    1.2368    0.0000 C   0  0  0  0  0  0  0  0  0  0  0  0
   -4.1029    1.8123    0.0000 C   0  0  0  0  0  0  0  0  0  0  0  0
   -2.9119    0.9003    0.0000 C   0  0  0  0  0  0  0  0  0  0  0  0
   -1.5267    1.4758    0.0000 C   0  0  0  0  0  0  0  0  0  0  0  0
   -0.3357    0.5639    0.0000 C   0  0  0  0  0  0  0  0  0  0  0  0
    1.0495    1.1393    0.0000 P   0  0  0  0  0  0  0  0  0  0  0  0
    2.2404    0.2274    0.0000 C   0  0  0  0  0  0  0  0  0  0  0  0
    2.0462   -1.2600    0.0000 C   0  0  0  0  0  0  0  0  0  0  0  0
    3.2371   -2.1719    0.0000 C   0  0  0  0  0  0  0  0  0  0  0  0
    4.6224   -1.5965    0.0000 C   0  0  0  0  0  0  0  0  0  0  0  0
    4.8166   -0.1091    0.0000 C   0  0  0  0  0  0  0  0  0  0  0  0
    3.6257    0.8028    0.0000 C   0  0  0  0  0  0  0  0  0  0  0  0
    1.2438    2.6267    0.0000 C   0  0  0  0  0  0  0  0  0  0  0  0
    2.6290    3.2021    0.0000 C   0  0  0  0  0  0  0  0  0  0  0  0
    2.8233    4.6895    0.0000 C   0  0  0  0  0  0  0  0  0  0  0  0
    1.6323    5.6014    0.0000 C   0  0  0  0  0  0  0  0  0  0  0  0
    0.2471    5.0260    0.0000 C   0  0  0  0  0  0  0  0  0  0  0  0
    0.0528    3.5386    0.0000 C   0  0  0  0  0  0  0  0  0  0  0  0
   -0.5300   -0.9235    0.0000 P   0  0  0  0  0  0  0  0  0  0  0  0
   -1.9153   -1.4989    0.0000 C   0  0  0  0  0  0  0  0  0  0  0  0
   -3.1062   -0.5870    0.0000 C   0  0  0  0  0  0  0  0  0  0  0  0
   -4.4914   -1.1625    0.0000 C   0  0  0  0  0  0  0  0  0  0  0  0
   -4.6857   -2.6498    0.0000 C   0  0  0  0  0  0  0  0  0  0  0  0
   -3.4948   -3.5617    0.0000 C   0  0  0  0  0  0  0  0  0  0  0  0
   -2.1095   -2.9863    0.0000 C   0  0  0  0  0  0  0  0  0  0  0  0
    0.6609   -1.8354    0.0000 C   0  0  0  0  0  0  0  0  0  0  0  0
    0.4667   -3.3228    0.0000 C   0  0  0  0  0  0  0  0  0  0  0  0
    1.6576   -4.2347    0.0000 C   0  0  0  0  0  0  0  0  0  0  0  0
    3.0429   -3.6593    0.0000 C   0  0  0  0  0  0  0  0  0  0  0  0
    3.2371   -2.1719    0.0000 C   0  0  0  0  0  0  0  0  0  0  0  0
    2.0462   -1.2600    0.0000 C   0  0  0  0  0  0  0  0  0  0  0  0
  1  2  1  0
  2  3  1  0
  3  4  1  0
  4  5  1  0
  5  6  1  0
  6  7  1  0
  7  8  1  0
  8  9  2  0
  9 10  1  0
 10 11  2  0
 11 12  1  0
 12 13  2  0
  7 14  1  0
 14 15  2  0
 15 16  1  0
 16 17  2  0
 17 18  1  0
 18 19  2  0
  6 20  1  0
 20 21  1  0
 21 22  2  0
 22 23  1  0
 23 24  2  0
 24 25  1  0
 25 26  2  0
 20 27  1  0
 27 28  2  0
 28 29  1  0
 29 30  2  0
 30 31  1  0
 31 32  2  0
 13  8  1  0
 19 14  1  0
 26 21  1  0
 32 27  1  0
M  END
>  <linear_selectivity>  (955) 
50

>  <denticity>  (955) 
2

>  <ligand_class>  (955) 
diphosphine

$$$$
dpph_130C_THF
     RDKit          2D

 32 35  0  0  0  0  0  0  0  0999 V2000
   -6.6791    2.1488    0.0000 C   0  0  0  0  0  0  0  0  0  0  0  0
   -5.4881    1.2368    0.0000 C   0  0  0  0  0  0  0  0  0  0  0  0
   -4.1029    1.8123    0.0000 C   0  0  0  0  0  0  0  0  0  0  0  0
   -2.9119    0.9003    0.0000 C   0  0  0  0  0  0  0  0  0  0  0  0
   -1.5267    1.4758    0.0000 C   0  0  0  0  0  0  0  0  0  0  0  0
   -0.3357    0.5639    0.0000 C   0  0  0  0  0  0  0  0  0  0  0  0
    1.0495    1.1393    0.0000 P   0  0  0  0  0  0  0  0  0  0  0  0
    2.2404    0.2274    0.0000 C   0  0  0  0  0  0  0  0  0  0  0  0
    2.0462   -1.2600    0.0000 C   0  0  0  0  0  0  0  0  0  0  0  0
    3.2371   -2.1719    0.0000 C   0  0  0  0  0  0  0  0  0  0  0  0
    4.6224   -1.5965    0.0000 C   0  0  0  0  0  0  0  0  0  0  0  0
    4.8166   -0.1091    0.0000 C   0  0  0  0  0  0  0  0  0  0  0  0
    3.6257    0.8028    0.0000 C   0  0  0  0  0  0  0  0  0  0  0  0
    1.2438    2.6267    0.0000 C   0  0  0  0  0  0  0  0  0  0  0  0
    2.6290    3.2021    0.0000 C   0  0  0  0  0  0  0  0  0  0  0  0
    2.8233    4.6895    0.0000 C   0  0  0  0  0  0  0  0  0  0  0  0
    1.6323    5.6014    0.0000 C   0  0  0  0  0  0  0  0  0  0  0  0
    0.2471    5.0260    0.0000 C   0  0  0  0  0  0  0  0  0  0  0  0
    0.0528    3.5386    0.0000 C   0  0  0  0  0  0  0  0  0  0  0  0
   -0.5300   -0.9235    0.0000 P   0  0  0  0  0  0  0  0  0  0  0  0
   -1.9153   -1.4989    0.0000 C   0  0  0  0  0  0  0  0  0  0  0  0
   -3.1062   -0.5870    0.0000 C   0  0  0  0  0  0  0  0  0  0  0  0
   -4.4914   -1.1625    0.0000 C   0  0  0  0  0  0  0  0  0  0  0  0
   -4.6857   -2.6498    0.0000 C   0  0  0  0  0  0  0  0  0  0  0  0
   -3.4948   -3.5617    0.0000 C   0  0  0  0  0  0  0  0  0  0  0  0
   -2.1095   -2.9863    0.0000 C   0  0  0  0  0  0  0  0  0  0  0  0
    0.6609   -1.8354    0.0000 C   0  0  0  0  0  0  0  0  0  0  0  0
    0.4667   -3.3228    0.0000 C   0  0  0  0  0  0  0  0  0  0  0  0
    1.6576   -4.2347    0.0000 C   0  0  0  0  0  0  0  0  0  0  0  0
    3.0429   -3.6593    0.0000 C   0  0  0  0  0  0  0  0  0  0  0  0
    3.2371   -2.1719    0.0000 C   0  0  0  0  0  0  0  0  0  0  0  0
    2.0462   -1.2600    0.0000 C   0  0  0  0  0  0  0  0  0  0  0  0
  1  2  1  0
  2  3  1  0
  3  4  1  0
  4  5  1  0
  5  6  1  0
  6  7  1  0
  7  8  1  0
  8  9  2  0
  9 10  1  0
 10 11  2  0
 11 12  1  0
 12 13  2  0
  7 14  1  0
 14 15  2  0
 15 16  1  0
 16 17  2  0
 17 18  1  0
 18 19  2  0
  6 20  1  0
 20 21  1  0
 21 22  2  0
 22 23  1  0
 23 24  2  0
 24 25  1  0
 25 26  2  0
 20 27  1  0
 27 28  2  0
 28 29  1  0
 29 30  2  0
 30 31  1  0
 31 32  2  0
 13  8  1  0
 19 14  1  0
 26 21  1  0
 32 27  1  0
M  END
>  <linear_selectivity>  (956) 
48

>  <denticity>  (956) 
2

>  <ligand_class>  (956) 
diphosphine

$$$$
dpph_130C_dioxane
     RDKit          2D

 32 35  0  0  0  0  0  0  0  0999 V2000
   -6.6791    2.1488    0.0000 C   0  0  0  0  0  0  0  0  0  0  0  0
   -5.4881    1.2368    0.0000 C   0  0  0  0  0  0  0  0  0  0  0  0
   -4.1029    1.8123    0.0000 C   0  0  0  0  0  0  0  0  0  0  0  0
   -2.9119    0.9003    0.0000 C   0  0  0  0  0  0  0  0  0  0  0  0
   -1.5267    1.4758    0.0000 C   0  0  0  0  0  0  0  0  0  0  0  0
   -0.3357    0.5639    0.0000 C   0  0  0  0  0  0  0  0  0  0  0  0
    1.0495    1.1393    0.0000 P   0  0  0  0  0  0  0  0  0  0  0  0
    2.2404    0.2274    0.0000 C   0  0  0  0  0  0  0  0  0  0  0  0
    2.0462   -1.2600    0.0000 C   0  0  0  0  0  0  0  0  0  0  0  0
    3.2371   -2.1719    0.0000 C   0  0  0  0  0  0  0  0  0  0  0  0
    4.6224   -1.5965    0.0000 C   0  0  0  0  0  0  0  0  0  0  0  0
    4.8166   -0.1091    0.0000 C   0  0  0  0  0  0  0  0  0  0  0  0
    3.6257    0.8028    0.0000 C   0  0  0  0  0  0  0  0  0  0  0  0
    1.2438    2.6267    0.0000 C   0  0  0  0  0  0  0  0  0  0  0  0
    2.6290    3.2021    0.0000 C   0  0  0  0  0  0  0  0  0  0  0  0
    2.8233    4.6895    0.0000 C   0  0  0  0  0  0  0  0  0  0  0  0
    1.6323    5.6014    0.0000 C   0  0  0  0  0  0  0  0  0  0  0  0
    0.2471    5.0260    0.0000 C   0  0  0  0  0  0  0  0  0  0  0  0
    0.0528    3.5386    0.0000 C   0  0  0  0  0  0  0  0  0  0  0  0
   -0.5300   -0.9235    0.0000 P   0  0  0  0  0  0  0  0  0  0  0  0
   -1.9153   -1.4989    0.0000 C   0  0  0  0  0  0  0  0  0  0  0  0
   -3.1062   -0.5870    0.0000 C   0  0  0  0  0  0  0  0  0  0  0  0
   -4.4914   -1.1625    0.0000 C   0  0  0  0  0  0  0  0  0  0  0  0
   -4.6857   -2.6498    0.0000 C   0  0  0  0  0  0  0  0  0  0  0  0
   -3.4948   -3.5617    0.0000 C   0  0  0  0  0  0  0  0  0  0  0  0
   -2.1095   -2.9863    0.0000 C   0  0  0  0  0  0  0  0  0  0  0  0
    0.6609   -1.8354    0.0000 C   0  0  0  0  0  0  0  0  0  0  0  0
    0.4667   -3.3228    0.0000 C   0  0  0  0  0  0  0  0  0  0  0  0
    1.6576   -4.2347    0.0000 C   0  0  0  0  0  0  0  0  0  0  0  0
    3.0429   -3.6593    0.0000 C   0  0  0  0  0  0  0  0  0  0  0  0
    3.2371   -2.1719    0.0000 C   0  0  0  0  0  0  0  0  0  0  0  0
    2.0462   -1.2600    0.0000 C   0  0  0  0  0  0  0  0  0  0  0  0
  1  2  1  0
  2  3  1  0
  3  4  1  0
  4  5  1  0
  5  6  1  0
  6  7  1  0
  7  8  1  0
  8  9  2  0
  9 10  1  0
 10 11  2  0
 11 12  1  0
 12 13  2  0
  7 14  1  0
 14 15  2  0
 15 16  1  0
 16 17  2  0
 17 18  1  0
 18 19  2  0
  6 20  1  0
 20 21  1  0
 21 22  2  0
 22 23  1  0
 23 24  2  0
 24 25  1  0
 25 26  2  0
 20 27  1  0
 27 28  2  0
 28 29  1  0
 29 30  2  0
 30 31  1  0
 31 32  2  0
 13  8  1  0
 19 14  1  0
 26 21  1  0
 32 27  1  0
M  END
>  <linear_selectivity>  (957) 
48

>  <denticity>  (957) 
2

>  <ligand_class>  (957) 
diphosphine

$$$$
dpph_130C_benzene
     RDKit          2D

 32 35  0  0  0  0  0  0  0  0999 V2000
   -6.6791    2.1488    0.0000 C   0  0  0  0  0  0  0  0  0  0  0  0
   -5.4881    1.2368    0.0000 C   0  0  0  0  0  0  0  0  0  0  0  0
   -4.1029    1.8123    0.0000 C   0  0  0  0  0  0  0  0  0  0  0  0
   -2.9119    0.9003    0.0000 C   0  0  0  0  0  0  0  0  0  0  0  0
   -1.5267    1.4758    0.0000 C   0  0  0  0  0  0  0  0  0  0  0  0
   -0.3357    0.5639    0.0000 C   0  0  0  0  0  0  0  0  0  0  0  0
    1.0495    1.1393    0.0000 P   0  0  0  0  0  0  0  0  0  0  0  0
    2.2404    0.2274    0.0000 C   0  0  0  0  0  0  0  0  0  0  0  0
    2.0462   -1.2600    0.0000 C   0  0  0  0  0  0  0  0  0  0  0  0
    3.2371   -2.1719    0.0000 C   0  0  0  0  0  0  0  0  0  0  0  0
    4.6224   -1.5965    0.0000 C   0  0  0  0  0  0  0  0  0  0  0  0
    4.8166   -0.1091    0.0000 C   0  0  0  0  0  0  0  0  0  0  0  0
    3.6257    0.8028    0.0000 C   0  0  0  0  0  0  0  0  0  0  0  0
    1.2438    2.6267    0.0000 C   0  0  0  0  0  0  0  0  0  0  0  0
    2.6290    3.2021    0.0000 C   0  0  0  0  0  0  0  0  0  0  0  0
    2.8233    4.6895    0.0000 C   0  0  0  0  0  0  0  0  0  0  0  0
    1.6323    5.6014    0.0000 C   0  0  0  0  0  0  0  0  0  0  0  0
    0.2471    5.0260    0.0000 C   0  0  0  0  0  0  0  0  0  0  0  0
    0.0528    3.5386    0.0000 C   0  0  0  0  0  0  0  0  0  0  0  0
   -0.5300   -0.9235    0.0000 P   0  0  0  0  0  0  0  0  0  0  0  0
   -1.9153   -1.4989    0.0000 C   0  0  0  0  0  0  0  0  0  0  0  0
   -3.1062   -0.5870    0.0000 C   0  0  0  0  0  0  0  0  0  0  0  0
   -4.4914   -1.1625    0.0000 C   0  0  0  0  0  0  0  0  0  0  0  0
   -4.6857   -2.6498    0.0000 C   0  0  0  0  0  0  0  0  0  0  0  0
   -3.4948   -3.5617    0.0000 C   0  0  0  0  0  0  0  0  0  0  0  0
   -2.1095   -2.9863    0.0000 C   0  0  0  0  0  0  0  0  0  0  0  0
    0.6609   -1.8354    0.0000 C   0  0  0  0  0  0  0  0  0  0  0  0
    0.4667   -3.3228    0.0000 C   0  0  0  0  0  0  0  0  0  0  0  0
    1.6576   -4.2347    0.0000 C   0  0  0  0  0  0  0  0  0  0  0  0
    3.0429   -3.6593    0.0000 C   0  0  0  0  0  0  0  0  0  0  0  0
    3.2371   -2.1719    0.0000 C   0  0  0  0  0  0  0  0  0  0  0  0
    2.0462   -1.2600    0.0000 C   0  0  0  0  0  0  0  0  0  0  0  0
  1  2  1  0
  2  3  1  0
  3  4  1  0
  4  5  1  0
  5  6  1  0
  6  7  1  0
  7  8  1  0
  8  9  2  0
  9 10  1  0
 10 11  2  0
 11 12  1  0
 12 13  2  0
  7 14  1  0
 14 15  2  0
 15 16  1  0
 16 17  2  0
 17 18  1  0
 18 19  2  0
  6 20  1  0
 20 21  1  0
 21 22  2  0
 22 23  1  0
 23 24  2  0
 24 25  1  0
 25 26  2  0
 20 27  1  0
 27 28  2  0
 28 29  1  0
 29 30  2  0
 30 31  1  0
 31 32  2  0
 13  8  1  0
 19 14  1  0
 26 21  1  0
 32 27  1  0
M  END
>  <linear_selectivity>  (958) 
50

>  <denticity>  (958) 
2

>  <ligand_class>  (958) 
diphosphine

$$$$
diphosphite-C2
     RDKit          2D

 32 35  0  0  0  0  0  0  0  0999 V2000
   -1.9219   -0.0000    0.0000 C   0  0  0  0  0  0  0  0  0  0  0  0
   -0.4219   -0.0000    0.0000 C   0  0  0  0  0  0  0  0  0  0  0  0
    0.3281    1.2990    0.0000 P   0  0  0  0  0  0  0  0  0  0  0  0
    1.8281    1.2990    0.0000 O   0  0  0  0  0  0  0  0  0  0  0  0
    2.5781    2.5981    0.0000 C   0  0  0  0  0  0  0  0  0  0  0  0
    4.0781    2.5981    0.0000 C   0  0  0  0  0  0  0  0  0  0  0  0
    4.8281    3.8971    0.0000 C   0  0  0  0  0  0  0  0  0  0  0  0
    4.0781    5.1962    0.0000 C   0  0  0  0  0  0  0  0  0  0  0  0
    2.5781    5.1962    0.0000 C   0  0  0  0  0  0  0  0  0  0  0  0
    1.8281    3.8971    0.0000 C   0  0  0  0  0  0  0  0  0  0  0  0
   -0.4219    2.5981    0.0000 O   0  0  0  0  0  0  0  0  0  0  0  0
   -1.9219    2.5981    0.0000 C   0  0  0  0  0  0  0  0  0  0  0  0
   -2.6719    3.8971    0.0000 C   0  0  0  0  0  0  0  0  0  0  0  0
   -4.1719    3.8971    0.0000 C   0  0  0  0  0  0  0  0  0  0  0  0
   -4.9219    2.5981    0.0000 C   0  0  0  0  0  0  0  0  0  0  0  0
   -4.1719    1.2990    0.0000 C   0  0  0  0  0  0  0  0  0  0  0  0
   -2.6719    1.2990    0.0000 C   0  0  0  0  0  0  0  0  0  0  0  0
    0.3281   -1.2990    0.0000 P   0  0  0  0  0  0  0  0  0  0  0  0
   -0.4219   -2.5981    0.0000 O   0  0  0  0  0  0  0  0  0  0  0  0
   -1.9219   -2.5981    0.0000 C   0  0  0  0  0  0  0  0  0  0  0  0
   -2.6719   -3.8971    0.0000 C   0  0  0  0  0  0  0  0  0  0  0  0
   -4.1719   -3.8971    0.0000 C   0  0  0  0  0  0  0  0  0  0  0  0
   -4.9219   -2.5981    0.0000 C   0  0  0  0  0  0  0  0  0  0  0  0
   -4.1719   -1.2990    0.0000 C   0  0  0  0  0  0  0  0  0  0  0  0
   -2.6719   -1.2990    0.0000 C   0  0  0  0  0  0  0  0  0  0  0  0
    1.8281   -1.2990    0.0000 O   0  0  0  0  0  0  0  0  0  0  0  0
    2.5781   -2.5981    0.0000 C   0  0  0  0  0  0  0  0  0  0  0  0
    1.8281   -3.8971    0.0000 C   0  0  0  0  0  0  0  0  0  0  0  0
    2.5781   -5.1962    0.0000 C   0  0  0  0  0  0  0  0  0  0  0  0
    4.0781   -5.1962    0.0000 C   0  0  0  0  0  0  0  0  0  0  0  0
    4.8281   -3.8971    0.0000 C   0  0  0  0  0  0  0  0  0  0  0  0
    4.0781   -2.5981    0.0000 C   0  0  0  0  0  0  0  0  0  0  0  0
  1  2  1  0
  2  3  1  0
  3  4  1  0
  4  5  1  0
  5  6  2  0
  6  7  1  0
  7  8  2  0
  8  9  1  0
  9 10  2  0
  3 11  1  0
 11 12  1  0
 12 13  2  0
 13 14  1  0
 14 15  2  0
 15 16  1  0
 16 17  2  0
  2 18  1  0
 18 19  1  0
 19 20  1  0
 20 21  2  0
 21 22  1  0
 22 23  2  0
 23 24  1  0
 24 25  2  0
 18 26  1  0
 26 27  1  0
 27 28  2  0
 28 29  1  0
 29 30  2  0
 30 31  1  0
 31 32  2  0
 10  5  1  0
 17 12  1  0
 25 20  1  0
 32 27  1  0
M  END
>  <linear_selectivity>  (959) 
78

>  <denticity>  (959) 
2

>  <ligand_class>  (959) 
diphosphite

$$$$
diphosphite-C2_70C_toluene
     RDKit          2D

 32 35  0  0  0  0  0  0  0  0999 V2000
   -1.9219   -0.0000    0.0000 C   0  0  0  0  0  0  0  0  0  0  0  0
   -0.4219   -0.0000    0.0000 C   0  0  0  0  0  0  0  0  0  0  0  0
    0.3281    1.2990    0.0000 P   0  0  0  0  0  0  0  0  0  0  0  0
    1.8281    1.2990    0.0000 O   0  0  0  0  0  0  0  0  0  0  0  0
    2.5781    2.5981    0.0000 C   0  0  0  0  0  0  0  0  0  0  0  0
    4.0781    2.5981    0.0000 C   0  0  0  0  0  0  0  0  0  0  0  0
    4.8281    3.8971    0.0000 C   0  0  0  0  0  0  0  0  0  0  0  0
    4.0781    5.1962    0.0000 C   0  0  0  0  0  0  0  0  0  0  0  0
    2.5781    5.1962    0.0000 C   0  0  0  0  0  0  0  0  0  0  0  0
    1.8281    3.8971    0.0000 C   0  0  0  0  0  0  0  0  0  0  0  0
   -0.4219    2.5981    0.0000 O   0  0  0  0  0  0  0  0  0  0  0  0
   -1.9219    2.5981    0.0000 C   0  0  0  0  0  0  0  0  0  0  0  0
   -2.6719    3.8971    0.0000 C   0  0  0  0  0  0  0  0  0  0  0  0
   -4.1719    3.8971    0.0000 C   0  0  0  0  0  0  0  0  0  0  0  0
   -4.9219    2.5981    0.0000 C   0  0  0  0  0  0  0  0  0  0  0  0
   -4.1719    1.2990    0.0000 C   0  0  0  0  0  0  0  0  0  0  0  0
   -2.6719    1.2990    0.0000 C   0  0  0  0  0  0  0  0  0  0  0  0
    0.3281   -1.2990    0.0000 P   0  0  0  0  0  0  0  0  0  0  0  0
   -0.4219   -2.5981    0.0000 O   0  0  0  0  0  0  0  0  0  0  0  0
   -1.9219   -2.5981    0.0000 C   0  0  0  0  0  0  0  0  0  0  0  0
   -2.6719   -3.8971    0.0000 C   0  0  0  0  0  0  0  0  0  0  0  0
   -4.1719   -3.8971    0.0000 C   0  0  0  0  0  0  0  0  0  0  0  0
   -4.9219   -2.5981    0.0000 C   0  0  0  0  0  0  0  0  0  0  0  0
   -4.1719   -1.2990    0.0000 C   0  0  0  0  0  0  0  0  0  0  0  0
   -2.6719   -1.2990    0.0000 C   0  0  0  0  0  0  0  0  0  0  0  0
    1.8281   -1.2990    0.0000 O   0  0  0  0  0  0  0  0  0  0  0  0
    2.5781   -2.5981    0.0000 C   0  0  0  0  0  0  0  0  0  0  0  0
    1.8281   -3.8971    0.0000 C   0  0  0  0  0  0  0  0  0  0  0  0
    2.5781   -5.1962    0.0000 C   0  0  0  0  0  0  0  0  0  0  0  0
    4.0781   -5.1962    0.0000 C   0  0  0  0  0  0  0  0  0  0  0  0
    4.8281   -3.8971    0.0000 C   0  0  0  0  0  0  0  0  0  0  0  0
    4.0781   -2.5981    0.0000 C   0  0  0  0  0  0  0  0  0  0  0  0
  1  2  1  0
  2  3  1  0
  3  4  1  0
  4  5  1  0
  5  6  2  0
  6  7  1  0
  7  8  2  0
  8  9  1  0
  9 10  2  0
  3 11  1  0
 11 12  1  0
 12 13  2  0
 13 14  1  0
 14 15  2  0
 15 16  1  0
 16 17  2  0
  2 18  1  0
 18 19  1  0
 19 20  1  0
 20 21  2  0
 21 22  1  0
 22 23  2  0
 23 24  1  0
 24 25  2  0
 18 26  1  0
 26 27  1  0
 27 28  2  0
 28 29  1  0
 29 30  2  0
 30 31  1  0
 31 32  2  0
 10  5  1  0
 17 12  1  0
 25 20  1  0
 32 27  1  0
M  END
>  <linear_selectivity>  (960) 
87

>  <denticity>  (960) 
2

>  <ligand_class>  (960) 
diphosphite

$$$$
diphosphite-C2_70C_dioxane
     RDKit          2D

 32 35  0  0  0  0  0  0  0  0999 V2000
   -1.9219   -0.0000    0.0000 C   0  0  0  0  0  0  0  0  0  0  0  0
   -0.4219   -0.0000    0.0000 C   0  0  0  0  0  0  0  0  0  0  0  0
    0.3281    1.2990    0.0000 P   0  0  0  0  0  0  0  0  0  0  0  0
    1.8281    1.2990    0.0000 O   0  0  0  0  0  0  0  0  0  0  0  0
    2.5781    2.5981    0.0000 C   0  0  0  0  0  0  0  0  0  0  0  0
    4.0781    2.5981    0.0000 C   0  0  0  0  0  0  0  0  0  0  0  0
    4.8281    3.8971    0.0000 C   0  0  0  0  0  0  0  0  0  0  0  0
    4.0781    5.1962    0.0000 C   0  0  0  0  0  0  0  0  0  0  0  0
    2.5781    5.1962    0.0000 C   0  0  0  0  0  0  0  0  0  0  0  0
    1.8281    3.8971    0.0000 C   0  0  0  0  0  0  0  0  0  0  0  0
   -0.4219    2.5981    0.0000 O   0  0  0  0  0  0  0  0  0  0  0  0
   -1.9219    2.5981    0.0000 C   0  0  0  0  0  0  0  0  0  0  0  0
   -2.6719    3.8971    0.0000 C   0  0  0  0  0  0  0  0  0  0  0  0
   -4.1719    3.8971    0.0000 C   0  0  0  0  0  0  0  0  0  0  0  0
   -4.9219    2.5981    0.0000 C   0  0  0  0  0  0  0  0  0  0  0  0
   -4.1719    1.2990    0.0000 C   0  0  0  0  0  0  0  0  0  0  0  0
   -2.6719    1.2990    0.0000 C   0  0  0  0  0  0  0  0  0  0  0  0
    0.3281   -1.2990    0.0000 P   0  0  0  0  0  0  0  0  0  0  0  0
   -0.4219   -2.5981    0.0000 O   0  0  0  0  0  0  0  0  0  0  0  0
   -1.9219   -2.5981    0.0000 C   0  0  0  0  0  0  0  0  0  0  0  0
   -2.6719   -3.8971    0.0000 C   0  0  0  0  0  0  0  0  0  0  0  0
   -4.1719   -3.8971    0.0000 C   0  0  0  0  0  0  0  0  0  0  0  0
   -4.9219   -2.5981    0.0000 C   0  0  0  0  0  0  0  0  0  0  0  0
   -4.1719   -1.2990    0.0000 C   0  0  0  0  0  0  0  0  0  0  0  0
   -2.6719   -1.2990    0.0000 C   0  0  0  0  0  0  0  0  0  0  0  0
    1.8281   -1.2990    0.0000 O   0  0  0  0  0  0  0  0  0  0  0  0
    2.5781   -2.5981    0.0000 C   0  0  0  0  0  0  0  0  0  0  0  0
    1.8281   -3.8971    0.0000 C   0  0  0  0  0  0  0  0  0  0  0  0
    2.5781   -5.1962    0.0000 C   0  0  0  0  0  0  0  0  0  0  0  0
    4.0781   -5.1962    0.0000 C   0  0  0  0  0  0  0  0  0  0  0  0
    4.8281   -3.8971    0.0000 C   0  0  0  0  0  0  0  0  0  0  0  0
    4.0781   -2.5981    0.0000 C   0  0  0  0  0  0  0  0  0  0  0  0
  1  2  1  0
  2  3  1  0
  3  4  1  0
  4  5  1  0
  5  6  2  0
  6  7  1  0
  7  8  2  0
  8  9  1  0
  9 10  2  0
  3 11  1  0
 11 12  1  0
 12 13  2  0
 13 14  1  0
 14 15  2  0
 15 16  1  0
 16 17  2  0
  2 18  1  0
 18 19  1  0
 19 20  1  0
 20 21  2  0
 21 22  1  0
 22 23  2  0
 23 24  1  0
 24 25  2  0
 18 26  1  0
 26 27  1  0
 27 28  2  0
 28 29  1  0
 29 30  2  0
 30 31  1  0
 31 32  2  0
 10  5  1  0
 17 12  1  0
 25 20  1  0
 32 27  1  0
M  END
>  <linear_selectivity>  (961) 
85

>  <denticity>  (961) 
2

>  <ligand_class>  (961) 
diphosphite

$$$$
diphosphite-C2_70C_hexane
     RDKit          2D

 32 35  0  0  0  0  0  0  0  0999 V2000
   -1.9219   -0.0000    0.0000 C   0  0  0  0  0  0  0  0  0  0  0  0
   -0.4219   -0.0000    0.0000 C   0  0  0  0  0  0  0  0  0  0  0  0
    0.3281    1.2990    0.0000 P   0  0  0  0  0  0  0  0  0  0  0  0
    1.8281    1.2990    0.0000 O   0  0  0  0  0  0  0  0  0  0  0  0
    2.5781    2.5981    0.0000 C   0  0  0  0  0  0  0  0  0  0  0  0
    4.0781    2.5981    0.0000 C   0  0  0  0  0  0  0  0  0  0  0  0
    4.8281    3.8971    0.0000 C   0  0  0  0  0  0  0  0  0  0  0  0
    4.0781    5.1962    0.0000 C   0  0  0  0  0  0  0  0  0  0  0  0
    2.5781    5.1962    0.0000 C   0  0  0  0  0  0  0  0  0  0  0  0
    1.8281    3.8971    0.0000 C   0  0  0  0  0  0  0  0  0  0  0  0
   -0.4219    2.5981    0.0000 O   0  0  0  0  0  0  0  0  0  0  0  0
   -1.9219    2.5981    0.0000 C   0  0  0  0  0  0  0  0  0  0  0  0
   -2.6719    3.8971    0.0000 C   0  0  0  0  0  0  0  0  0  0  0  0
   -4.1719    3.8971    0.0000 C   0  0  0  0  0  0  0  0  0  0  0  0
   -4.9219    2.5981    0.0000 C   0  0  0  0  0  0  0  0  0  0  0  0
   -4.1719    1.2990    0.0000 C   0  0  0  0  0  0  0  0  0  0  0  0
   -2.6719    1.2990    0.0000 C   0  0  0  0  0  0  0  0  0  0  0  0
    0.3281   -1.2990    0.0000 P   0  0  0  0  0  0  0  0  0  0  0  0
   -0.4219   -2.5981    0.0000 O   0  0  0  0  0  0  0  0  0  0  0  0
   -1.9219   -2.5981    0.0000 C   0  0  0  0  0  0  0  0  0  0  0  0
   -2.6719   -3.8971    0.0000 C   0  0  0  0  0  0  0  0  0  0  0  0
   -4.1719   -3.8971    0.0000 C   0  0  0  0  0  0  0  0  0  0  0  0
   -4.9219   -2.5981    0.0000 C   0  0  0  0  0  0  0  0  0  0  0  0
   -4.1719   -1.2990    0.0000 C   0  0  0  0  0  0  0  0  0  0  0  0
   -2.6719   -1.2990    0.0000 C   0  0  0  0  0  0  0  0  0  0  0  0
    1.8281   -1.2990    0.0000 O   0  0  0  0  0  0  0  0  0  0  0  0
    2.5781   -2.5981    0.0000 C   0  0  0  0  0  0  0  0  0  0  0  0
    1.8281   -3.8971    0.0000 C   0  0  0  0  0  0  0  0  0  0  0  0
    2.5781   -5.1962    0.0000 C   0  0  0  0  0  0  0  0  0  0  0  0
    4.0781   -5.1962    0.0000 C   0  0  0  0  0  0  0  0  0  0  0  0
    4.8281   -3.8971    0.0000 C   0  0  0  0  0  0  0  0  0  0  0  0
    4.0781   -2.5981    0.0000 C   0  0  0  0  0  0  0  0  0  0  0  0
  1  2  1  0
  2  3  1  0
  3  4  1  0
  4  5  1  0
  5  6  2  0
  6  7  1  0
  7  8  2  0
  8  9  1  0
  9 10  2  0
  3 11  1  0
 11 12  1  0
 12 13  2  0
 13 14  1  0
 14 15  2  0
 15 16  1  0
 16 17  2  0
  2 18  1  0
 18 19  1  0
 19 20  1  0
 20 21  2  0
 21 22  1  0
 22 23  2  0
 23 24  1  0
 24 25  2  0
 18 26  1  0
 26 27  1  0
 27 28  2  0
 28 29  1  0
 29 30  2  0
 30 31  1  0
 31 32  2  0
 10  5  1  0
 17 12  1  0
 25 20  1  0
 32 27  1  0
M  END
>  <linear_selectivity>  (962) 
93

>  <denticity>  (962) 
2

>  <ligand_class>  (962) 
diphosphite

$$$$
diphosphite-C2_70C_benzene
     RDKit          2D

 32 35  0  0  0  0  0  0  0  0999 V2000
   -1.9219   -0.0000    0.0000 C   0  0  0  0  0  0  0  0  0  0  0  0
   -0.4219   -0.0000    0.0000 C   0  0  0  0  0  0  0  0  0  0  0  0
    0.3281    1.2990    0.0000 P   0  0  0  0  0  0  0  0  0  0  0  0
    1.8281    1.2990    0.0000 O   0  0  0  0  0  0  0  0  0  0  0  0
    2.5781    2.5981    0.0000 C   0  0  0  0  0  0  0  0  0  0  0  0
    4.0781    2.5981    0.0000 C   0  0  0  0  0  0  0  0  0  0  0  0
    4.8281    3.8971    0.0000 C   0  0  0  0  0  0  0  0  0  0  0  0
    4.0781    5.1962    0.0000 C   0  0  0  0  0  0  0  0  0  0  0  0
    2.5781    5.1962    0.0000 C   0  0  0  0  0  0  0  0  0  0  0  0
    1.8281    3.8971    0.0000 C   0  0  0  0  0  0  0  0  0  0  0  0
   -0.4219    2.5981    0.0000 O   0  0  0  0  0  0  0  0  0  0  0  0
   -1.9219    2.5981    0.0000 C   0  0  0  0  0  0  0  0  0  0  0  0
   -2.6719    3.8971    0.0000 C   0  0  0  0  0  0  0  0  0  0  0  0
   -4.1719    3.8971    0.0000 C   0  0  0  0  0  0  0  0  0  0  0  0
   -4.9219    2.5981    0.0000 C   0  0  0  0  0  0  0  0  0  0  0  0
   -4.1719    1.2990    0.0000 C   0  0  0  0  0  0  0  0  0  0  0  0
   -2.6719    1.2990    0.0000 C   0  0  0  0  0  0  0  0  0  0  0  0
    0.3281   -1.2990    0.0000 P   0  0  0  0  0  0  0  0  0  0  0  0
   -0.4219   -2.5981    0.0000 O   0  0  0  0  0  0  0  0  0  0  0  0
   -1.9219   -2.5981    0.0000 C   0  0  0  0  0  0  0  0  0  0  0  0
   -2.6719   -3.8971    0.0000 C   0  0  0  0  0  0  0  0  0  0  0  0
   -4.1719   -3.8971    0.0000 C   0  0  0  0  0  0  0  0  0  0  0  0
   -4.9219   -2.5981    0.0000 C   0  0  0  0  0  0  0  0  0  0  0  0
   -4.1719   -1.2990    0.0000 C   0  0  0  0  0  0  0  0  0  0  0  0
   -2.6719   -1.2990    0.0000 C   0  0  0  0  0  0  0  0  0  0  0  0
    1.8281   -1.2990    0.0000 O   0  0  0  0  0  0  0  0  0  0  0  0
    2.5781   -2.5981    0.0000 C   0  0  0  0  0  0  0  0  0  0  0  0
    1.8281   -3.8971    0.0000 C   0  0  0  0  0  0  0  0  0  0  0  0
    2.5781   -5.1962    0.0000 C   0  0  0  0  0  0  0  0  0  0  0  0
    4.0781   -5.1962    0.0000 C   0  0  0  0  0  0  0  0  0  0  0  0
    4.8281   -3.8971    0.0000 C   0  0  0  0  0  0  0  0  0  0  0  0
    4.0781   -2.5981    0.0000 C   0  0  0  0  0  0  0  0  0  0  0  0
  1  2  1  0
  2  3  1  0
  3  4  1  0
  4  5  1  0
  5  6  2  0
  6  7  1  0
  7  8  2  0
  8  9  1  0
  9 10  2  0
  3 11  1  0
 11 12  1  0
 12 13  2  0
 13 14  1  0
 14 15  2  0
 15 16  1  0
 16 17  2  0
  2 18  1  0
 18 19  1  0
 19 20  1  0
 20 21  2  0
 21 22  1  0
 22 23  2  0
 23 24  1  0
 24 25  2  0
 18 26  1  0
 26 27  1  0
 27 28  2  0
 28 29  1  0
 29 30  2  0
 30 31  1  0
 31 32  2  0
 10  5  1  0
 17 12  1  0
 25 20  1  0
 32 27  1  0
M  END
>  <linear_selectivity>  (963) 
91

>  <denticity>  (963) 
2

>  <ligand_class>  (963) 
diphosphite

$$$$
diphosphite-C2_70C_xylene
     RDKit          2D

 32 35  0  0  0  0  0  0  0  0999 V2000
   -1.9219   -0.0000    0.0000 C   0  0  0  0  0  0  0  0  0  0  0  0
   -0.4219   -0.0000    0.0000 C   0  0  0  0  0  0  0  0  0  0  0  0
    0.3281    1.2990    0.0000 P   0  0  0  0  0  0  0  0  0  0  0  0
    1.8281    1.2990    0.0000 O   0  0  0  0  0  0  0  0  0  0  0  0
    2.5781    2.5981    0.0000 C   0  0  0  0  0  0  0  0  0  0  0  0
    4.0781    2.5981    0.0000 C   0  0  0  0  0  0  0  0  0  0  0  0
    4.8281    3.8971    0.0000 C   0  0  0  0  0  0  0  0  0  0  0  0
    4.0781    5.1962    0.0000 C   0  0  0  0  0  0  0  0  0  0  0  0
    2.5781    5.1962    0.0000 C   0  0  0  0  0  0  0  0  0  0  0  0
    1.8281    3.8971    0.0000 C   0  0  0  0  0  0  0  0  0  0  0  0
   -0.4219    2.5981    0.0000 O   0  0  0  0  0  0  0  0  0  0  0  0
   -1.9219    2.5981    0.0000 C   0  0  0  0  0  0  0  0  0  0  0  0
   -2.6719    3.8971    0.0000 C   0  0  0  0  0  0  0  0  0  0  0  0
   -4.1719    3.8971    0.0000 C   0  0  0  0  0  0  0  0  0  0  0  0
   -4.9219    2.5981    0.0000 C   0  0  0  0  0  0  0  0  0  0  0  0
   -4.1719    1.2990    0.0000 C   0  0  0  0  0  0  0  0  0  0  0  0
   -2.6719    1.2990    0.0000 C   0  0  0  0  0  0  0  0  0  0  0  0
    0.3281   -1.2990    0.0000 P   0  0  0  0  0  0  0  0  0  0  0  0
   -0.4219   -2.5981    0.0000 O   0  0  0  0  0  0  0  0  0  0  0  0
   -1.9219   -2.5981    0.0000 C   0  0  0  0  0  0  0  0  0  0  0  0
   -2.6719   -3.8971    0.0000 C   0  0  0  0  0  0  0  0  0  0  0  0
   -4.1719   -3.8971    0.0000 C   0  0  0  0  0  0  0  0  0  0  0  0
   -4.9219   -2.5981    0.0000 C   0  0  0  0  0  0  0  0  0  0  0  0
   -4.1719   -1.2990    0.0000 C   0  0  0  0  0  0  0  0  0  0  0  0
   -2.6719   -1.2990    0.0000 C   0  0  0  0  0  0  0  0  0  0  0  0
    1.8281   -1.2990    0.0000 O   0  0  0  0  0  0  0  0  0  0  0  0
    2.5781   -2.5981    0.0000 C   0  0  0  0  0  0  0  0  0  0  0  0
    1.8281   -3.8971    0.0000 C   0  0  0  0  0  0  0  0  0  0  0  0
    2.5781   -5.1962    0.0000 C   0  0  0  0  0  0  0  0  0  0  0  0
    4.0781   -5.1962    0.0000 C   0  0  0  0  0  0  0  0  0  0  0  0
    4.8281   -3.8971    0.0000 C   0  0  0  0  0  0  0  0  0  0  0  0
    4.0781   -2.5981    0.0000 C   0  0  0  0  0  0  0  0  0  0  0  0
  1  2  1  0
  2  3  1  0
  3  4  1  0
  4  5  1  0
  5  6  2  0
  6  7  1  0
  7  8  2  0
  8  9  1  0
  9 10  2  0
  3 11  1  0
 11 12  1  0
 12 13  2  0
 13 14  1  0
 14 15  2  0
 15 16  1  0
 16 17  2  0
  2 18  1  0
 18 19  1  0
 19 20  1  0
 20 21  2  0
 21 22  1  0
 22 23  2  0
 23 24  1  0
 24 25  2  0
 18 26  1  0
 26 27  1  0
 27 28  2  0
 28 29  1  0
 29 30  2  0
 30 31  1  0
 31 32  2  0
 10  5  1  0
 17 12  1  0
 25 20  1  0
 32 27  1  0
M  END
>  <linear_selectivity>  (964) 
90

>  <denticity>  (964) 
2

>  <ligand_class>  (964) 
diphosphite

$$$$
diphosphite-C2_80C_toluene
     RDKit          2D

 32 35  0  0  0  0  0  0  0  0999 V2000
   -1.9219   -0.0000    0.0000 C   0  0  0  0  0  0  0  0  0  0  0  0
   -0.4219   -0.0000    0.0000 C   0  0  0  0  0  0  0  0  0  0  0  0
    0.3281    1.2990    0.0000 P   0  0  0  0  0  0  0  0  0  0  0  0
    1.8281    1.2990    0.0000 O   0  0  0  0  0  0  0  0  0  0  0  0
    2.5781    2.5981    0.0000 C   0  0  0  0  0  0  0  0  0  0  0  0
    4.0781    2.5981    0.0000 C   0  0  0  0  0  0  0  0  0  0  0  0
    4.8281    3.8971    0.0000 C   0  0  0  0  0  0  0  0  0  0  0  0
    4.0781    5.1962    0.0000 C   0  0  0  0  0  0  0  0  0  0  0  0
    2.5781    5.1962    0.0000 C   0  0  0  0  0  0  0  0  0  0  0  0
    1.8281    3.8971    0.0000 C   0  0  0  0  0  0  0  0  0  0  0  0
   -0.4219    2.5981    0.0000 O   0  0  0  0  0  0  0  0  0  0  0  0
   -1.9219    2.5981    0.0000 C   0  0  0  0  0  0  0  0  0  0  0  0
   -2.6719    3.8971    0.0000 C   0  0  0  0  0  0  0  0  0  0  0  0
   -4.1719    3.8971    0.0000 C   0  0  0  0  0  0  0  0  0  0  0  0
   -4.9219    2.5981    0.0000 C   0  0  0  0  0  0  0  0  0  0  0  0
   -4.1719    1.2990    0.0000 C   0  0  0  0  0  0  0  0  0  0  0  0
   -2.6719    1.2990    0.0000 C   0  0  0  0  0  0  0  0  0  0  0  0
    0.3281   -1.2990    0.0000 P   0  0  0  0  0  0  0  0  0  0  0  0
   -0.4219   -2.5981    0.0000 O   0  0  0  0  0  0  0  0  0  0  0  0
   -1.9219   -2.5981    0.0000 C   0  0  0  0  0  0  0  0  0  0  0  0
   -2.6719   -3.8971    0.0000 C   0  0  0  0  0  0  0  0  0  0  0  0
   -4.1719   -3.8971    0.0000 C   0  0  0  0  0  0  0  0  0  0  0  0
   -4.9219   -2.5981    0.0000 C   0  0  0  0  0  0  0  0  0  0  0  0
   -4.1719   -1.2990    0.0000 C   0  0  0  0  0  0  0  0  0  0  0  0
   -2.6719   -1.2990    0.0000 C   0  0  0  0  0  0  0  0  0  0  0  0
    1.8281   -1.2990    0.0000 O   0  0  0  0  0  0  0  0  0  0  0  0
    2.5781   -2.5981    0.0000 C   0  0  0  0  0  0  0  0  0  0  0  0
    1.8281   -3.8971    0.0000 C   0  0  0  0  0  0  0  0  0  0  0  0
    2.5781   -5.1962    0.0000 C   0  0  0  0  0  0  0  0  0  0  0  0
    4.0781   -5.1962    0.0000 C   0  0  0  0  0  0  0  0  0  0  0  0
    4.8281   -3.8971    0.0000 C   0  0  0  0  0  0  0  0  0  0  0  0
    4.0781   -2.5981    0.0000 C   0  0  0  0  0  0  0  0  0  0  0  0
  1  2  1  0
  2  3  1  0
  3  4  1  0
  4  5  1  0
  5  6  2  0
  6  7  1  0
  7  8  2  0
  8  9  1  0
  9 10  2  0
  3 11  1  0
 11 12  1  0
 12 13  2  0
 13 14  1  0
 14 15  2  0
 15 16  1  0
 16 17  2  0
  2 18  1  0
 18 19  1  0
 19 20  1  0
 20 21  2  0
 21 22  1  0
 22 23  2  0
 23 24  1  0
 24 25  2  0
 18 26  1  0
 26 27  1  0
 27 28  2  0
 28 29  1  0
 29 30  2  0
 30 31  1  0
 31 32  2  0
 10  5  1  0
 17 12  1  0
 25 20  1  0
 32 27  1  0
M  END
>  <linear_selectivity>  (965) 
83

>  <denticity>  (965) 
2

>  <ligand_class>  (965) 
diphosphite

$$$$
diphosphite-C2_80C_hexane
     RDKit          2D

 32 35  0  0  0  0  0  0  0  0999 V2000
   -1.9219   -0.0000    0.0000 C   0  0  0  0  0  0  0  0  0  0  0  0
   -0.4219   -0.0000    0.0000 C   0  0  0  0  0  0  0  0  0  0  0  0
    0.3281    1.2990    0.0000 P   0  0  0  0  0  0  0  0  0  0  0  0
    1.8281    1.2990    0.0000 O   0  0  0  0  0  0  0  0  0  0  0  0
    2.5781    2.5981    0.0000 C   0  0  0  0  0  0  0  0  0  0  0  0
    4.0781    2.5981    0.0000 C   0  0  0  0  0  0  0  0  0  0  0  0
    4.8281    3.8971    0.0000 C   0  0  0  0  0  0  0  0  0  0  0  0
    4.0781    5.1962    0.0000 C   0  0  0  0  0  0  0  0  0  0  0  0
    2.5781    5.1962    0.0000 C   0  0  0  0  0  0  0  0  0  0  0  0
    1.8281    3.8971    0.0000 C   0  0  0  0  0  0  0  0  0  0  0  0
   -0.4219    2.5981    0.0000 O   0  0  0  0  0  0  0  0  0  0  0  0
   -1.9219    2.5981    0.0000 C   0  0  0  0  0  0  0  0  0  0  0  0
   -2.6719    3.8971    0.0000 C   0  0  0  0  0  0  0  0  0  0  0  0
   -4.1719    3.8971    0.0000 C   0  0  0  0  0  0  0  0  0  0  0  0
   -4.9219    2.5981    0.0000 C   0  0  0  0  0  0  0  0  0  0  0  0
   -4.1719    1.2990    0.0000 C   0  0  0  0  0  0  0  0  0  0  0  0
   -2.6719    1.2990    0.0000 C   0  0  0  0  0  0  0  0  0  0  0  0
    0.3281   -1.2990    0.0000 P   0  0  0  0  0  0  0  0  0  0  0  0
   -0.4219   -2.5981    0.0000 O   0  0  0  0  0  0  0  0  0  0  0  0
   -1.9219   -2.5981    0.0000 C   0  0  0  0  0  0  0  0  0  0  0  0
   -2.6719   -3.8971    0.0000 C   0  0  0  0  0  0  0  0  0  0  0  0
   -4.1719   -3.8971    0.0000 C   0  0  0  0  0  0  0  0  0  0  0  0
   -4.9219   -2.5981    0.0000 C   0  0  0  0  0  0  0  0  0  0  0  0
   -4.1719   -1.2990    0.0000 C   0  0  0  0  0  0  0  0  0  0  0  0
   -2.6719   -1.2990    0.0000 C   0  0  0  0  0  0  0  0  0  0  0  0
    1.8281   -1.2990    0.0000 O   0  0  0  0  0  0  0  0  0  0  0  0
    2.5781   -2.5981    0.0000 C   0  0  0  0  0  0  0  0  0  0  0  0
    1.8281   -3.8971    0.0000 C   0  0  0  0  0  0  0  0  0  0  0  0
    2.5781   -5.1962    0.0000 C   0  0  0  0  0  0  0  0  0  0  0  0
    4.0781   -5.1962    0.0000 C   0  0  0  0  0  0  0  0  0  0  0  0
    4.8281   -3.8971    0.0000 C   0  0  0  0  0  0  0  0  0  0  0  0
    4.0781   -2.5981    0.0000 C   0  0  0  0  0  0  0  0  0  0  0  0
  1  2  1  0
  2  3  1  0
  3  4  1  0
  4  5  1  0
  5  6  2  0
  6  7  1  0
  7  8  2  0
  8  9  1  0
  9 10  2  0
  3 11  1  0
 11 12  1  0
 12 13  2  0
 13 14  1  0
 14 15  2  0
 15 16  1  0
 16 17  2  0
  2 18  1  0
 18 19  1  0
 19 20  1  0
 20 21  2  0
 21 22  1  0
 22 23  2  0
 23 24  1  0
 24 25  2  0
 18 26  1  0
 26 27  1  0
 27 28  2  0
 28 29  1  0
 29 30  2  0
 30 31  1  0
 31 32  2  0
 10  5  1  0
 17 12  1  0
 25 20  1  0
 32 27  1  0
M  END
>  <linear_selectivity>  (966) 
86

>  <denticity>  (966) 
2

>  <ligand_class>  (966) 
diphosphite

$$$$
diphosphite-C2_80C_xylene
     RDKit          2D

 32 35  0  0  0  0  0  0  0  0999 V2000
   -1.9219   -0.0000    0.0000 C   0  0  0  0  0  0  0  0  0  0  0  0
   -0.4219   -0.0000    0.0000 C   0  0  0  0  0  0  0  0  0  0  0  0
    0.3281    1.2990    0.0000 P   0  0  0  0  0  0  0  0  0  0  0  0
    1.8281    1.2990    0.0000 O   0  0  0  0  0  0  0  0  0  0  0  0
    2.5781    2.5981    0.0000 C   0  0  0  0  0  0  0  0  0  0  0  0
    4.0781    2.5981    0.0000 C   0  0  0  0  0  0  0  0  0  0  0  0
    4.8281    3.8971    0.0000 C   0  0  0  0  0  0  0  0  0  0  0  0
    4.0781    5.1962    0.0000 C   0  0  0  0  0  0  0  0  0  0  0  0
    2.5781    5.1962    0.0000 C   0  0  0  0  0  0  0  0  0  0  0  0
    1.8281    3.8971    0.0000 C   0  0  0  0  0  0  0  0  0  0  0  0
   -0.4219    2.5981    0.0000 O   0  0  0  0  0  0  0  0  0  0  0  0
   -1.9219    2.5981    0.0000 C   0  0  0  0  0  0  0  0  0  0  0  0
   -2.6719    3.8971    0.0000 C   0  0  0  0  0  0  0  0  0  0  0  0
   -4.1719    3.8971    0.0000 C   0  0  0  0  0  0  0  0  0  0  0  0
   -4.9219    2.5981    0.0000 C   0  0  0  0  0  0  0  0  0  0  0  0
   -4.1719    1.2990    0.0000 C   0  0  0  0  0  0  0  0  0  0  0  0
   -2.6719    1.2990    0.0000 C   0  0  0  0  0  0  0  0  0  0  0  0
    0.3281   -1.2990    0.0000 P   0  0  0  0  0  0  0  0  0  0  0  0
   -0.4219   -2.5981    0.0000 O   0  0  0  0  0  0  0  0  0  0  0  0
   -1.9219   -2.5981    0.0000 C   0  0  0  0  0  0  0  0  0  0  0  0
   -2.6719   -3.8971    0.0000 C   0  0  0  0  0  0  0  0  0  0  0  0
   -4.1719   -3.8971    0.0000 C   0  0  0  0  0  0  0  0  0  0  0  0
   -4.9219   -2.5981    0.0000 C   0  0  0  0  0  0  0  0  0  0  0  0
   -4.1719   -1.2990    0.0000 C   0  0  0  0  0  0  0  0  0  0  0  0
   -2.6719   -1.2990    0.0000 C   0  0  0  0  0  0  0  0  0  0  0  0
    1.8281   -1.2990    0.0000 O   0  0  0  0  0  0  0  0  0  0  0  0
    2.5781   -2.5981    0.0000 C   0  0  0  0  0  0  0  0  0  0  0  0
    1.8281   -3.8971    0.0000 C   0  0  0  0  0  0  0  0  0  0  0  0
    2.5781   -5.1962    0.0000 C   0  0  0  0  0  0  0  0  0  0  0  0
    4.0781   -5.1962    0.0000 C   0  0  0  0  0  0  0  0  0  0  0  0
    4.8281   -3.8971    0.0000 C   0  0  0  0  0  0  0  0  0  0  0  0
    4.0781   -2.5981    0.0000 C   0  0  0  0  0  0  0  0  0  0  0  0
  1  2  1  0
  2  3  1  0
  3  4  1  0
  4  5  1  0
  5  6  2  0
  6  7  1  0
  7  8  2  0
  8  9  1  0
  9 10  2  0
  3 11  1  0
 11 12  1  0
 12 13  2  0
 13 14  1  0
 14 15  2  0
 15 16  1  0
 16 17  2  0
  2 18  1  0
 18 19  1  0
 19 20  1  0
 20 21  2  0
 21 22  1  0
 22 23  2  0
 23 24  1  0
 24 25  2  0
 18 26  1  0
 26 27  1  0
 27 28  2  0
 28 29  1  0
 29 30  2  0
 30 31  1  0
 31 32  2  0
 10  5  1  0
 17 12  1  0
 25 20  1  0
 32 27  1  0
M  END
>  <linear_selectivity>  (967) 
85

>  <denticity>  (967) 
2

>  <ligand_class>  (967) 
diphosphite

$$$$
diphosphite-C2_90C_THF
     RDKit          2D

 32 35  0  0  0  0  0  0  0  0999 V2000
   -1.9219   -0.0000    0.0000 C   0  0  0  0  0  0  0  0  0  0  0  0
   -0.4219   -0.0000    0.0000 C   0  0  0  0  0  0  0  0  0  0  0  0
    0.3281    1.2990    0.0000 P   0  0  0  0  0  0  0  0  0  0  0  0
    1.8281    1.2990    0.0000 O   0  0  0  0  0  0  0  0  0  0  0  0
    2.5781    2.5981    0.0000 C   0  0  0  0  0  0  0  0  0  0  0  0
    4.0781    2.5981    0.0000 C   0  0  0  0  0  0  0  0  0  0  0  0
    4.8281    3.8971    0.0000 C   0  0  0  0  0  0  0  0  0  0  0  0
    4.0781    5.1962    0.0000 C   0  0  0  0  0  0  0  0  0  0  0  0
    2.5781    5.1962    0.0000 C   0  0  0  0  0  0  0  0  0  0  0  0
    1.8281    3.8971    0.0000 C   0  0  0  0  0  0  0  0  0  0  0  0
   -0.4219    2.5981    0.0000 O   0  0  0  0  0  0  0  0  0  0  0  0
   -1.9219    2.5981    0.0000 C   0  0  0  0  0  0  0  0  0  0  0  0
   -2.6719    3.8971    0.0000 C   0  0  0  0  0  0  0  0  0  0  0  0
   -4.1719    3.8971    0.0000 C   0  0  0  0  0  0  0  0  0  0  0  0
   -4.9219    2.5981    0.0000 C   0  0  0  0  0  0  0  0  0  0  0  0
   -4.1719    1.2990    0.0000 C   0  0  0  0  0  0  0  0  0  0  0  0
   -2.6719    1.2990    0.0000 C   0  0  0  0  0  0  0  0  0  0  0  0
    0.3281   -1.2990    0.0000 P   0  0  0  0  0  0  0  0  0  0  0  0
   -0.4219   -2.5981    0.0000 O   0  0  0  0  0  0  0  0  0  0  0  0
   -1.9219   -2.5981    0.0000 C   0  0  0  0  0  0  0  0  0  0  0  0
   -2.6719   -3.8971    0.0000 C   0  0  0  0  0  0  0  0  0  0  0  0
   -4.1719   -3.8971    0.0000 C   0  0  0  0  0  0  0  0  0  0  0  0
   -4.9219   -2.5981    0.0000 C   0  0  0  0  0  0  0  0  0  0  0  0
   -4.1719   -1.2990    0.0000 C   0  0  0  0  0  0  0  0  0  0  0  0
   -2.6719   -1.2990    0.0000 C   0  0  0  0  0  0  0  0  0  0  0  0
    1.8281   -1.2990    0.0000 O   0  0  0  0  0  0  0  0  0  0  0  0
    2.5781   -2.5981    0.0000 C   0  0  0  0  0  0  0  0  0  0  0  0
    1.8281   -3.8971    0.0000 C   0  0  0  0  0  0  0  0  0  0  0  0
    2.5781   -5.1962    0.0000 C   0  0  0  0  0  0  0  0  0  0  0  0
    4.0781   -5.1962    0.0000 C   0  0  0  0  0  0  0  0  0  0  0  0
    4.8281   -3.8971    0.0000 C   0  0  0  0  0  0  0  0  0  0  0  0
    4.0781   -2.5981    0.0000 C   0  0  0  0  0  0  0  0  0  0  0  0
  1  2  1  0
  2  3  1  0
  3  4  1  0
  4  5  1  0
  5  6  2  0
  6  7  1  0
  7  8  2  0
  8  9  1  0
  9 10  2  0
  3 11  1  0
 11 12  1  0
 12 13  2  0
 13 14  1  0
 14 15  2  0
 15 16  1  0
 16 17  2  0
  2 18  1  0
 18 19  1  0
 19 20  1  0
 20 21  2  0
 21 22  1  0
 22 23  2  0
 23 24  1  0
 24 25  2  0
 18 26  1  0
 26 27  1  0
 27 28  2  0
 28 29  1  0
 29 30  2  0
 30 31  1  0
 31 32  2  0
 10  5  1  0
 17 12  1  0
 25 20  1  0
 32 27  1  0
M  END
>  <linear_selectivity>  (968) 
71

>  <denticity>  (968) 
2

>  <ligand_class>  (968) 
diphosphite

$$$$
diphosphite-C2_90C_hexane
     RDKit          2D

 32 35  0  0  0  0  0  0  0  0999 V2000
   -1.9219   -0.0000    0.0000 C   0  0  0  0  0  0  0  0  0  0  0  0
   -0.4219   -0.0000    0.0000 C   0  0  0  0  0  0  0  0  0  0  0  0
    0.3281    1.2990    0.0000 P   0  0  0  0  0  0  0  0  0  0  0  0
    1.8281    1.2990    0.0000 O   0  0  0  0  0  0  0  0  0  0  0  0
    2.5781    2.5981    0.0000 C   0  0  0  0  0  0  0  0  0  0  0  0
    4.0781    2.5981    0.0000 C   0  0  0  0  0  0  0  0  0  0  0  0
    4.8281    3.8971    0.0000 C   0  0  0  0  0  0  0  0  0  0  0  0
    4.0781    5.1962    0.0000 C   0  0  0  0  0  0  0  0  0  0  0  0
    2.5781    5.1962    0.0000 C   0  0  0  0  0  0  0  0  0  0  0  0
    1.8281    3.8971    0.0000 C   0  0  0  0  0  0  0  0  0  0  0  0
   -0.4219    2.5981    0.0000 O   0  0  0  0  0  0  0  0  0  0  0  0
   -1.9219    2.5981    0.0000 C   0  0  0  0  0  0  0  0  0  0  0  0
   -2.6719    3.8971    0.0000 C   0  0  0  0  0  0  0  0  0  0  0  0
   -4.1719    3.8971    0.0000 C   0  0  0  0  0  0  0  0  0  0  0  0
   -4.9219    2.5981    0.0000 C   0  0  0  0  0  0  0  0  0  0  0  0
   -4.1719    1.2990    0.0000 C   0  0  0  0  0  0  0  0  0  0  0  0
   -2.6719    1.2990    0.0000 C   0  0  0  0  0  0  0  0  0  0  0  0
    0.3281   -1.2990    0.0000 P   0  0  0  0  0  0  0  0  0  0  0  0
   -0.4219   -2.5981    0.0000 O   0  0  0  0  0  0  0  0  0  0  0  0
   -1.9219   -2.5981    0.0000 C   0  0  0  0  0  0  0  0  0  0  0  0
   -2.6719   -3.8971    0.0000 C   0  0  0  0  0  0  0  0  0  0  0  0
   -4.1719   -3.8971    0.0000 C   0  0  0  0  0  0  0  0  0  0  0  0
   -4.9219   -2.5981    0.0000 C   0  0  0  0  0  0  0  0  0  0  0  0
   -4.1719   -1.2990    0.0000 C   0  0  0  0  0  0  0  0  0  0  0  0
   -2.6719   -1.2990    0.0000 C   0  0  0  0  0  0  0  0  0  0  0  0
    1.8281   -1.2990    0.0000 O   0  0  0  0  0  0  0  0  0  0  0  0
    2.5781   -2.5981    0.0000 C   0  0  0  0  0  0  0  0  0  0  0  0
    1.8281   -3.8971    0.0000 C   0  0  0  0  0  0  0  0  0  0  0  0
    2.5781   -5.1962    0.0000 C   0  0  0  0  0  0  0  0  0  0  0  0
    4.0781   -5.1962    0.0000 C   0  0  0  0  0  0  0  0  0  0  0  0
    4.8281   -3.8971    0.0000 C   0  0  0  0  0  0  0  0  0  0  0  0
    4.0781   -2.5981    0.0000 C   0  0  0  0  0  0  0  0  0  0  0  0
  1  2  1  0
  2  3  1  0
  3  4  1  0
  4  5  1  0
  5  6  2  0
  6  7  1  0
  7  8  2  0
  8  9  1  0
  9 10  2  0
  3 11  1  0
 11 12  1  0
 12 13  2  0
 13 14  1  0
 14 15  2  0
 15 16  1  0
 16 17  2  0
  2 18  1  0
 18 19  1  0
 19 20  1  0
 20 21  2  0
 21 22  1  0
 22 23  2  0
 23 24  1  0
 24 25  2  0
 18 26  1  0
 26 27  1  0
 27 28  2  0
 28 29  1  0
 29 30  2  0
 30 31  1  0
 31 32  2  0
 10  5  1  0
 17 12  1  0
 25 20  1  0
 32 27  1  0
M  END
>  <linear_selectivity>  (969) 
84

>  <denticity>  (969) 
2

>  <ligand_class>  (969) 
diphosphite

$$$$
diphosphite-C2_90C_benzene
     RDKit          2D

 32 35  0  0  0  0  0  0  0  0999 V2000
   -1.9219   -0.0000    0.0000 C   0  0  0  0  0  0  0  0  0  0  0  0
   -0.4219   -0.0000    0.0000 C   0  0  0  0  0  0  0  0  0  0  0  0
    0.3281    1.2990    0.0000 P   0  0  0  0  0  0  0  0  0  0  0  0
    1.8281    1.2990    0.0000 O   0  0  0  0  0  0  0  0  0  0  0  0
    2.5781    2.5981    0.0000 C   0  0  0  0  0  0  0  0  0  0  0  0
    4.0781    2.5981    0.0000 C   0  0  0  0  0  0  0  0  0  0  0  0
    4.8281    3.8971    0.0000 C   0  0  0  0  0  0  0  0  0  0  0  0
    4.0781    5.1962    0.0000 C   0  0  0  0  0  0  0  0  0  0  0  0
    2.5781    5.1962    0.0000 C   0  0  0  0  0  0  0  0  0  0  0  0
    1.8281    3.8971    0.0000 C   0  0  0  0  0  0  0  0  0  0  0  0
   -0.4219    2.5981    0.0000 O   0  0  0  0  0  0  0  0  0  0  0  0
   -1.9219    2.5981    0.0000 C   0  0  0  0  0  0  0  0  0  0  0  0
   -2.6719    3.8971    0.0000 C   0  0  0  0  0  0  0  0  0  0  0  0
   -4.1719    3.8971    0.0000 C   0  0  0  0  0  0  0  0  0  0  0  0
   -4.9219    2.5981    0.0000 C   0  0  0  0  0  0  0  0  0  0  0  0
   -4.1719    1.2990    0.0000 C   0  0  0  0  0  0  0  0  0  0  0  0
   -2.6719    1.2990    0.0000 C   0  0  0  0  0  0  0  0  0  0  0  0
    0.3281   -1.2990    0.0000 P   0  0  0  0  0  0  0  0  0  0  0  0
   -0.4219   -2.5981    0.0000 O   0  0  0  0  0  0  0  0  0  0  0  0
   -1.9219   -2.5981    0.0000 C   0  0  0  0  0  0  0  0  0  0  0  0
   -2.6719   -3.8971    0.0000 C   0  0  0  0  0  0  0  0  0  0  0  0
   -4.1719   -3.8971    0.0000 C   0  0  0  0  0  0  0  0  0  0  0  0
   -4.9219   -2.5981    0.0000 C   0  0  0  0  0  0  0  0  0  0  0  0
   -4.1719   -1.2990    0.0000 C   0  0  0  0  0  0  0  0  0  0  0  0
   -2.6719   -1.2990    0.0000 C   0  0  0  0  0  0  0  0  0  0  0  0
    1.8281   -1.2990    0.0000 O   0  0  0  0  0  0  0  0  0  0  0  0
    2.5781   -2.5981    0.0000 C   0  0  0  0  0  0  0  0  0  0  0  0
    1.8281   -3.8971    0.0000 C   0  0  0  0  0  0  0  0  0  0  0  0
    2.5781   -5.1962    0.0000 C   0  0  0  0  0  0  0  0  0  0  0  0
    4.0781   -5.1962    0.0000 C   0  0  0  0  0  0  0  0  0  0  0  0
    4.8281   -3.8971    0.0000 C   0  0  0  0  0  0  0  0  0  0  0  0
    4.0781   -2.5981    0.0000 C   0  0  0  0  0  0  0  0  0  0  0  0
  1  2  1  0
  2  3  1  0
  3  4  1  0
  4  5  1  0
  5  6  2  0
  6  7  1  0
  7  8  2  0
  8  9  1  0
  9 10  2  0
  3 11  1  0
 11 12  1  0
 12 13  2  0
 13 14  1  0
 14 15  2  0
 15 16  1  0
 16 17  2  0
  2 18  1  0
 18 19  1  0
 19 20  1  0
 20 21  2  0
 21 22  1  0
 22 23  2  0
 23 24  1  0
 24 25  2  0
 18 26  1  0
 26 27  1  0
 27 28  2  0
 28 29  1  0
 29 30  2  0
 30 31  1  0
 31 32  2  0
 10  5  1  0
 17 12  1  0
 25 20  1  0
 32 27  1  0
M  END
>  <linear_selectivity>  (970) 
83

>  <denticity>  (970) 
2

>  <ligand_class>  (970) 
diphosphite

$$$$
diphosphite-C2_90C_xylene
     RDKit          2D

 32 35  0  0  0  0  0  0  0  0999 V2000
   -1.9219   -0.0000    0.0000 C   0  0  0  0  0  0  0  0  0  0  0  0
   -0.4219   -0.0000    0.0000 C   0  0  0  0  0  0  0  0  0  0  0  0
    0.3281    1.2990    0.0000 P   0  0  0  0  0  0  0  0  0  0  0  0
    1.8281    1.2990    0.0000 O   0  0  0  0  0  0  0  0  0  0  0  0
    2.5781    2.5981    0.0000 C   0  0  0  0  0  0  0  0  0  0  0  0
    4.0781    2.5981    0.0000 C   0  0  0  0  0  0  0  0  0  0  0  0
    4.8281    3.8971    0.0000 C   0  0  0  0  0  0  0  0  0  0  0  0
    4.0781    5.1962    0.0000 C   0  0  0  0  0  0  0  0  0  0  0  0
    2.5781    5.1962    0.0000 C   0  0  0  0  0  0  0  0  0  0  0  0
    1.8281    3.8971    0.0000 C   0  0  0  0  0  0  0  0  0  0  0  0
   -0.4219    2.5981    0.0000 O   0  0  0  0  0  0  0  0  0  0  0  0
   -1.9219    2.5981    0.0000 C   0  0  0  0  0  0  0  0  0  0  0  0
   -2.6719    3.8971    0.0000 C   0  0  0  0  0  0  0  0  0  0  0  0
   -4.1719    3.8971    0.0000 C   0  0  0  0  0  0  0  0  0  0  0  0
   -4.9219    2.5981    0.0000 C   0  0  0  0  0  0  0  0  0  0  0  0
   -4.1719    1.2990    0.0000 C   0  0  0  0  0  0  0  0  0  0  0  0
   -2.6719    1.2990    0.0000 C   0  0  0  0  0  0  0  0  0  0  0  0
    0.3281   -1.2990    0.0000 P   0  0  0  0  0  0  0  0  0  0  0  0
   -0.4219   -2.5981    0.0000 O   0  0  0  0  0  0  0  0  0  0  0  0
   -1.9219   -2.5981    0.0000 C   0  0  0  0  0  0  0  0  0  0  0  0
   -2.6719   -3.8971    0.0000 C   0  0  0  0  0  0  0  0  0  0  0  0
   -4.1719   -3.8971    0.0000 C   0  0  0  0  0  0  0  0  0  0  0  0
   -4.9219   -2.5981    0.0000 C   0  0  0  0  0  0  0  0  0  0  0  0
   -4.1719   -1.2990    0.0000 C   0  0  0  0  0  0  0  0  0  0  0  0
   -2.6719   -1.2990    0.0000 C   0  0  0  0  0  0  0  0  0  0  0  0
    1.8281   -1.2990    0.0000 O   0  0  0  0  0  0  0  0  0  0  0  0
    2.5781   -2.5981    0.0000 C   0  0  0  0  0  0  0  0  0  0  0  0
    1.8281   -3.8971    0.0000 C   0  0  0  0  0  0  0  0  0  0  0  0
    2.5781   -5.1962    0.0000 C   0  0  0  0  0  0  0  0  0  0  0  0
    4.0781   -5.1962    0.0000 C   0  0  0  0  0  0  0  0  0  0  0  0
    4.8281   -3.8971    0.0000 C   0  0  0  0  0  0  0  0  0  0  0  0
    4.0781   -2.5981    0.0000 C   0  0  0  0  0  0  0  0  0  0  0  0
  1  2  1  0
  2  3  1  0
  3  4  1  0
  4  5  1  0
  5  6  2  0
  6  7  1  0
  7  8  2  0
  8  9  1  0
  9 10  2  0
  3 11  1  0
 11 12  1  0
 12 13  2  0
 13 14  1  0
 14 15  2  0
 15 16  1  0
 16 17  2  0
  2 18  1  0
 18 19  1  0
 19 20  1  0
 20 21  2  0
 21 22  1  0
 22 23  2  0
 23 24  1  0
 24 25  2  0
 18 26  1  0
 26 27  1  0
 27 28  2  0
 28 29  1  0
 29 30  2  0
 30 31  1  0
 31 32  2  0
 10  5  1  0
 17 12  1  0
 25 20  1  0
 32 27  1  0
M  END
>  <linear_selectivity>  (971) 
82

>  <denticity>  (971) 
2

>  <ligand_class>  (971) 
diphosphite

$$$$
diphosphite-C2_100C_toluene
     RDKit          2D

 32 35  0  0  0  0  0  0  0  0999 V2000
   -1.9219   -0.0000    0.0000 C   0  0  0  0  0  0  0  0  0  0  0  0
   -0.4219   -0.0000    0.0000 C   0  0  0  0  0  0  0  0  0  0  0  0
    0.3281    1.2990    0.0000 P   0  0  0  0  0  0  0  0  0  0  0  0
    1.8281    1.2990    0.0000 O   0  0  0  0  0  0  0  0  0  0  0  0
    2.5781    2.5981    0.0000 C   0  0  0  0  0  0  0  0  0  0  0  0
    4.0781    2.5981    0.0000 C   0  0  0  0  0  0  0  0  0  0  0  0
    4.8281    3.8971    0.0000 C   0  0  0  0  0  0  0  0  0  0  0  0
    4.0781    5.1962    0.0000 C   0  0  0  0  0  0  0  0  0  0  0  0
    2.5781    5.1962    0.0000 C   0  0  0  0  0  0  0  0  0  0  0  0
    1.8281    3.8971    0.0000 C   0  0  0  0  0  0  0  0  0  0  0  0
   -0.4219    2.5981    0.0000 O   0  0  0  0  0  0  0  0  0  0  0  0
   -1.9219    2.5981    0.0000 C   0  0  0  0  0  0  0  0  0  0  0  0
   -2.6719    3.8971    0.0000 C   0  0  0  0  0  0  0  0  0  0  0  0
   -4.1719    3.8971    0.0000 C   0  0  0  0  0  0  0  0  0  0  0  0
   -4.9219    2.5981    0.0000 C   0  0  0  0  0  0  0  0  0  0  0  0
   -4.1719    1.2990    0.0000 C   0  0  0  0  0  0  0  0  0  0  0  0
   -2.6719    1.2990    0.0000 C   0  0  0  0  0  0  0  0  0  0  0  0
    0.3281   -1.2990    0.0000 P   0  0  0  0  0  0  0  0  0  0  0  0
   -0.4219   -2.5981    0.0000 O   0  0  0  0  0  0  0  0  0  0  0  0
   -1.9219   -2.5981    0.0000 C   0  0  0  0  0  0  0  0  0  0  0  0
   -2.6719   -3.8971    0.0000 C   0  0  0  0  0  0  0  0  0  0  0  0
   -4.1719   -3.8971    0.0000 C   0  0  0  0  0  0  0  0  0  0  0  0
   -4.9219   -2.5981    0.0000 C   0  0  0  0  0  0  0  0  0  0  0  0
   -4.1719   -1.2990    0.0000 C   0  0  0  0  0  0  0  0  0  0  0  0
   -2.6719   -1.2990    0.0000 C   0  0  0  0  0  0  0  0  0  0  0  0
    1.8281   -1.2990    0.0000 O   0  0  0  0  0  0  0  0  0  0  0  0
    2.5781   -2.5981    0.0000 C   0  0  0  0  0  0  0  0  0  0  0  0
    1.8281   -3.8971    0.0000 C   0  0  0  0  0  0  0  0  0  0  0  0
    2.5781   -5.1962    0.0000 C   0  0  0  0  0  0  0  0  0  0  0  0
    4.0781   -5.1962    0.0000 C   0  0  0  0  0  0  0  0  0  0  0  0
    4.8281   -3.8971    0.0000 C   0  0  0  0  0  0  0  0  0  0  0  0
    4.0781   -2.5981    0.0000 C   0  0  0  0  0  0  0  0  0  0  0  0
  1  2  1  0
  2  3  1  0
  3  4  1  0
  4  5  1  0
  5  6  2  0
  6  7  1  0
  7  8  2  0
  8  9  1  0
  9 10  2  0
  3 11  1  0
 11 12  1  0
 12 13  2  0
 13 14  1  0
 14 15  2  0
 15 16  1  0
 16 17  2  0
  2 18  1  0
 18 19  1  0
 19 20  1  0
 20 21  2  0
 21 22  1  0
 22 23  2  0
 23 24  1  0
 24 25  2  0
 18 26  1  0
 26 27  1  0
 27 28  2  0
 28 29  1  0
 29 30  2  0
 30 31  1  0
 31 32  2  0
 10  5  1  0
 17 12  1  0
 25 20  1  0
 32 27  1  0
M  END
>  <linear_selectivity>  (972) 
78

>  <denticity>  (972) 
2

>  <ligand_class>  (972) 
diphosphite

$$$$
diphosphite-C2_100C_THF
     RDKit          2D

 32 35  0  0  0  0  0  0  0  0999 V2000
   -1.9219   -0.0000    0.0000 C   0  0  0  0  0  0  0  0  0  0  0  0
   -0.4219   -0.0000    0.0000 C   0  0  0  0  0  0  0  0  0  0  0  0
    0.3281    1.2990    0.0000 P   0  0  0  0  0  0  0  0  0  0  0  0
    1.8281    1.2990    0.0000 O   0  0  0  0  0  0  0  0  0  0  0  0
    2.5781    2.5981    0.0000 C   0  0  0  0  0  0  0  0  0  0  0  0
    4.0781    2.5981    0.0000 C   0  0  0  0  0  0  0  0  0  0  0  0
    4.8281    3.8971    0.0000 C   0  0  0  0  0  0  0  0  0  0  0  0
    4.0781    5.1962    0.0000 C   0  0  0  0  0  0  0  0  0  0  0  0
    2.5781    5.1962    0.0000 C   0  0  0  0  0  0  0  0  0  0  0  0
    1.8281    3.8971    0.0000 C   0  0  0  0  0  0  0  0  0  0  0  0
   -0.4219    2.5981    0.0000 O   0  0  0  0  0  0  0  0  0  0  0  0
   -1.9219    2.5981    0.0000 C   0  0  0  0  0  0  0  0  0  0  0  0
   -2.6719    3.8971    0.0000 C   0  0  0  0  0  0  0  0  0  0  0  0
   -4.1719    3.8971    0.0000 C   0  0  0  0  0  0  0  0  0  0  0  0
   -4.9219    2.5981    0.0000 C   0  0  0  0  0  0  0  0  0  0  0  0
   -4.1719    1.2990    0.0000 C   0  0  0  0  0  0  0  0  0  0  0  0
   -2.6719    1.2990    0.0000 C   0  0  0  0  0  0  0  0  0  0  0  0
    0.3281   -1.2990    0.0000 P   0  0  0  0  0  0  0  0  0  0  0  0
   -0.4219   -2.5981    0.0000 O   0  0  0  0  0  0  0  0  0  0  0  0
   -1.9219   -2.5981    0.0000 C   0  0  0  0  0  0  0  0  0  0  0  0
   -2.6719   -3.8971    0.0000 C   0  0  0  0  0  0  0  0  0  0  0  0
   -4.1719   -3.8971    0.0000 C   0  0  0  0  0  0  0  0  0  0  0  0
   -4.9219   -2.5981    0.0000 C   0  0  0  0  0  0  0  0  0  0  0  0
   -4.1719   -1.2990    0.0000 C   0  0  0  0  0  0  0  0  0  0  0  0
   -2.6719   -1.2990    0.0000 C   0  0  0  0  0  0  0  0  0  0  0  0
    1.8281   -1.2990    0.0000 O   0  0  0  0  0  0  0  0  0  0  0  0
    2.5781   -2.5981    0.0000 C   0  0  0  0  0  0  0  0  0  0  0  0
    1.8281   -3.8971    0.0000 C   0  0  0  0  0  0  0  0  0  0  0  0
    2.5781   -5.1962    0.0000 C   0  0  0  0  0  0  0  0  0  0  0  0
    4.0781   -5.1962    0.0000 C   0  0  0  0  0  0  0  0  0  0  0  0
    4.8281   -3.8971    0.0000 C   0  0  0  0  0  0  0  0  0  0  0  0
    4.0781   -2.5981    0.0000 C   0  0  0  0  0  0  0  0  0  0  0  0
  1  2  1  0
  2  3  1  0
  3  4  1  0
  4  5  1  0
  5  6  2  0
  6  7  1  0
  7  8  2  0
  8  9  1  0
  9 10  2  0
  3 11  1  0
 11 12  1  0
 12 13  2  0
 13 14  1  0
 14 15  2  0
 15 16  1  0
 16 17  2  0
  2 18  1  0
 18 19  1  0
 19 20  1  0
 20 21  2  0
 21 22  1  0
 22 23  2  0
 23 24  1  0
 24 25  2  0
 18 26  1  0
 26 27  1  0
 27 28  2  0
 28 29  1  0
 29 30  2  0
 30 31  1  0
 31 32  2  0
 10  5  1  0
 17 12  1  0
 25 20  1  0
 32 27  1  0
M  END
>  <linear_selectivity>  (973) 
73

>  <denticity>  (973) 
2

>  <ligand_class>  (973) 
diphosphite

$$$$
diphosphite-C2_100C_benzene
     RDKit          2D

 32 35  0  0  0  0  0  0  0  0999 V2000
   -1.9219   -0.0000    0.0000 C   0  0  0  0  0  0  0  0  0  0  0  0
   -0.4219   -0.0000    0.0000 C   0  0  0  0  0  0  0  0  0  0  0  0
    0.3281    1.2990    0.0000 P   0  0  0  0  0  0  0  0  0  0  0  0
    1.8281    1.2990    0.0000 O   0  0  0  0  0  0  0  0  0  0  0  0
    2.5781    2.5981    0.0000 C   0  0  0  0  0  0  0  0  0  0  0  0
    4.0781    2.5981    0.0000 C   0  0  0  0  0  0  0  0  0  0  0  0
    4.8281    3.8971    0.0000 C   0  0  0  0  0  0  0  0  0  0  0  0
    4.0781    5.1962    0.0000 C   0  0  0  0  0  0  0  0  0  0  0  0
    2.5781    5.1962    0.0000 C   0  0  0  0  0  0  0  0  0  0  0  0
    1.8281    3.8971    0.0000 C   0  0  0  0  0  0  0  0  0  0  0  0
   -0.4219    2.5981    0.0000 O   0  0  0  0  0  0  0  0  0  0  0  0
   -1.9219    2.5981    0.0000 C   0  0  0  0  0  0  0  0  0  0  0  0
   -2.6719    3.8971    0.0000 C   0  0  0  0  0  0  0  0  0  0  0  0
   -4.1719    3.8971    0.0000 C   0  0  0  0  0  0  0  0  0  0  0  0
   -4.9219    2.5981    0.0000 C   0  0  0  0  0  0  0  0  0  0  0  0
   -4.1719    1.2990    0.0000 C   0  0  0  0  0  0  0  0  0  0  0  0
   -2.6719    1.2990    0.0000 C   0  0  0  0  0  0  0  0  0  0  0  0
    0.3281   -1.2990    0.0000 P   0  0  0  0  0  0  0  0  0  0  0  0
   -0.4219   -2.5981    0.0000 O   0  0  0  0  0  0  0  0  0  0  0  0
   -1.9219   -2.5981    0.0000 C   0  0  0  0  0  0  0  0  0  0  0  0
   -2.6719   -3.8971    0.0000 C   0  0  0  0  0  0  0  0  0  0  0  0
   -4.1719   -3.8971    0.0000 C   0  0  0  0  0  0  0  0  0  0  0  0
   -4.9219   -2.5981    0.0000 C   0  0  0  0  0  0  0  0  0  0  0  0
   -4.1719   -1.2990    0.0000 C   0  0  0  0  0  0  0  0  0  0  0  0
   -2.6719   -1.2990    0.0000 C   0  0  0  0  0  0  0  0  0  0  0  0
    1.8281   -1.2990    0.0000 O   0  0  0  0  0  0  0  0  0  0  0  0
    2.5781   -2.5981    0.0000 C   0  0  0  0  0  0  0  0  0  0  0  0
    1.8281   -3.8971    0.0000 C   0  0  0  0  0  0  0  0  0  0  0  0
    2.5781   -5.1962    0.0000 C   0  0  0  0  0  0  0  0  0  0  0  0
    4.0781   -5.1962    0.0000 C   0  0  0  0  0  0  0  0  0  0  0  0
    4.8281   -3.8971    0.0000 C   0  0  0  0  0  0  0  0  0  0  0  0
    4.0781   -2.5981    0.0000 C   0  0  0  0  0  0  0  0  0  0  0  0
  1  2  1  0
  2  3  1  0
  3  4  1  0
  4  5  1  0
  5  6  2  0
  6  7  1  0
  7  8  2  0
  8  9  1  0
  9 10  2  0
  3 11  1  0
 11 12  1  0
 12 13  2  0
 13 14  1  0
 14 15  2  0
 15 16  1  0
 16 17  2  0
  2 18  1  0
 18 19  1  0
 19 20  1  0
 20 21  2  0
 21 22  1  0
 22 23  2  0
 23 24  1  0
 24 25  2  0
 18 26  1  0
 26 27  1  0
 27 28  2  0
 28 29  1  0
 29 30  2  0
 30 31  1  0
 31 32  2  0
 10  5  1  0
 17 12  1  0
 25 20  1  0
 32 27  1  0
M  END
>  <linear_selectivity>  (974) 
78

>  <denticity>  (974) 
2

>  <ligand_class>  (974) 
diphosphite

$$$$
diphosphite-C2_110C_dioxane
     RDKit          2D

 32 35  0  0  0  0  0  0  0  0999 V2000
   -1.9219   -0.0000    0.0000 C   0  0  0  0  0  0  0  0  0  0  0  0
   -0.4219   -0.0000    0.0000 C   0  0  0  0  0  0  0  0  0  0  0  0
    0.3281    1.2990    0.0000 P   0  0  0  0  0  0  0  0  0  0  0  0
    1.8281    1.2990    0.0000 O   0  0  0  0  0  0  0  0  0  0  0  0
    2.5781    2.5981    0.0000 C   0  0  0  0  0  0  0  0  0  0  0  0
    4.0781    2.5981    0.0000 C   0  0  0  0  0  0  0  0  0  0  0  0
    4.8281    3.8971    0.0000 C   0  0  0  0  0  0  0  0  0  0  0  0
    4.0781    5.1962    0.0000 C   0  0  0  0  0  0  0  0  0  0  0  0
    2.5781    5.1962    0.0000 C   0  0  0  0  0  0  0  0  0  0  0  0
    1.8281    3.8971    0.0000 C   0  0  0  0  0  0  0  0  0  0  0  0
   -0.4219    2.5981    0.0000 O   0  0  0  0  0  0  0  0  0  0  0  0
   -1.9219    2.5981    0.0000 C   0  0  0  0  0  0  0  0  0  0  0  0
   -2.6719    3.8971    0.0000 C   0  0  0  0  0  0  0  0  0  0  0  0
   -4.1719    3.8971    0.0000 C   0  0  0  0  0  0  0  0  0  0  0  0
   -4.9219    2.5981    0.0000 C   0  0  0  0  0  0  0  0  0  0  0  0
   -4.1719    1.2990    0.0000 C   0  0  0  0  0  0  0  0  0  0  0  0
   -2.6719    1.2990    0.0000 C   0  0  0  0  0  0  0  0  0  0  0  0
    0.3281   -1.2990    0.0000 P   0  0  0  0  0  0  0  0  0  0  0  0
   -0.4219   -2.5981    0.0000 O   0  0  0  0  0  0  0  0  0  0  0  0
   -1.9219   -2.5981    0.0000 C   0  0  0  0  0  0  0  0  0  0  0  0
   -2.6719   -3.8971    0.0000 C   0  0  0  0  0  0  0  0  0  0  0  0
   -4.1719   -3.8971    0.0000 C   0  0  0  0  0  0  0  0  0  0  0  0
   -4.9219   -2.5981    0.0000 C   0  0  0  0  0  0  0  0  0  0  0  0
   -4.1719   -1.2990    0.0000 C   0  0  0  0  0  0  0  0  0  0  0  0
   -2.6719   -1.2990    0.0000 C   0  0  0  0  0  0  0  0  0  0  0  0
    1.8281   -1.2990    0.0000 O   0  0  0  0  0  0  0  0  0  0  0  0
    2.5781   -2.5981    0.0000 C   0  0  0  0  0  0  0  0  0  0  0  0
    1.8281   -3.8971    0.0000 C   0  0  0  0  0  0  0  0  0  0  0  0
    2.5781   -5.1962    0.0000 C   0  0  0  0  0  0  0  0  0  0  0  0
    4.0781   -5.1962    0.0000 C   0  0  0  0  0  0  0  0  0  0  0  0
    4.8281   -3.8971    0.0000 C   0  0  0  0  0  0  0  0  0  0  0  0
    4.0781   -2.5981    0.0000 C   0  0  0  0  0  0  0  0  0  0  0  0
  1  2  1  0
  2  3  1  0
  3  4  1  0
  4  5  1  0
  5  6  2  0
  6  7  1  0
  7  8  2  0
  8  9  1  0
  9 10  2  0
  3 11  1  0
 11 12  1  0
 12 13  2  0
 13 14  1  0
 14 15  2  0
 15 16  1  0
 16 17  2  0
  2 18  1  0
 18 19  1  0
 19 20  1  0
 20 21  2  0
 21 22  1  0
 22 23  2  0
 23 24  1  0
 24 25  2  0
 18 26  1  0
 26 27  1  0
 27 28  2  0
 28 29  1  0
 29 30  2  0
 30 31  1  0
 31 32  2  0
 10  5  1  0
 17 12  1  0
 25 20  1  0
 32 27  1  0
M  END
>  <linear_selectivity>  (975) 
73

>  <denticity>  (975) 
2

>  <ligand_class>  (975) 
diphosphite

$$$$
diphosphite-C2_110C_hexane
     RDKit          2D

 32 35  0  0  0  0  0  0  0  0999 V2000
   -1.9219   -0.0000    0.0000 C   0  0  0  0  0  0  0  0  0  0  0  0
   -0.4219   -0.0000    0.0000 C   0  0  0  0  0  0  0  0  0  0  0  0
    0.3281    1.2990    0.0000 P   0  0  0  0  0  0  0  0  0  0  0  0
    1.8281    1.2990    0.0000 O   0  0  0  0  0  0  0  0  0  0  0  0
    2.5781    2.5981    0.0000 C   0  0  0  0  0  0  0  0  0  0  0  0
    4.0781    2.5981    0.0000 C   0  0  0  0  0  0  0  0  0  0  0  0
    4.8281    3.8971    0.0000 C   0  0  0  0  0  0  0  0  0  0  0  0
    4.0781    5.1962    0.0000 C   0  0  0  0  0  0  0  0  0  0  0  0
    2.5781    5.1962    0.0000 C   0  0  0  0  0  0  0  0  0  0  0  0
    1.8281    3.8971    0.0000 C   0  0  0  0  0  0  0  0  0  0  0  0
   -0.4219    2.5981    0.0000 O   0  0  0  0  0  0  0  0  0  0  0  0
   -1.9219    2.5981    0.0000 C   0  0  0  0  0  0  0  0  0  0  0  0
   -2.6719    3.8971    0.0000 C   0  0  0  0  0  0  0  0  0  0  0  0
   -4.1719    3.8971    0.0000 C   0  0  0  0  0  0  0  0  0  0  0  0
   -4.9219    2.5981    0.0000 C   0  0  0  0  0  0  0  0  0  0  0  0
   -4.1719    1.2990    0.0000 C   0  0  0  0  0  0  0  0  0  0  0  0
   -2.6719    1.2990    0.0000 C   0  0  0  0  0  0  0  0  0  0  0  0
    0.3281   -1.2990    0.0000 P   0  0  0  0  0  0  0  0  0  0  0  0
   -0.4219   -2.5981    0.0000 O   0  0  0  0  0  0  0  0  0  0  0  0
   -1.9219   -2.5981    0.0000 C   0  0  0  0  0  0  0  0  0  0  0  0
   -2.6719   -3.8971    0.0000 C   0  0  0  0  0  0  0  0  0  0  0  0
   -4.1719   -3.8971    0.0000 C   0  0  0  0  0  0  0  0  0  0  0  0
   -4.9219   -2.5981    0.0000 C   0  0  0  0  0  0  0  0  0  0  0  0
   -4.1719   -1.2990    0.0000 C   0  0  0  0  0  0  0  0  0  0  0  0
   -2.6719   -1.2990    0.0000 C   0  0  0  0  0  0  0  0  0  0  0  0
    1.8281   -1.2990    0.0000 O   0  0  0  0  0  0  0  0  0  0  0  0
    2.5781   -2.5981    0.0000 C   0  0  0  0  0  0  0  0  0  0  0  0
    1.8281   -3.8971    0.0000 C   0  0  0  0  0  0  0  0  0  0  0  0
    2.5781   -5.1962    0.0000 C   0  0  0  0  0  0  0  0  0  0  0  0
    4.0781   -5.1962    0.0000 C   0  0  0  0  0  0  0  0  0  0  0  0
    4.8281   -3.8971    0.0000 C   0  0  0  0  0  0  0  0  0  0  0  0
    4.0781   -2.5981    0.0000 C   0  0  0  0  0  0  0  0  0  0  0  0
  1  2  1  0
  2  3  1  0
  3  4  1  0
  4  5  1  0
  5  6  2  0
  6  7  1  0
  7  8  2  0
  8  9  1  0
  9 10  2  0
  3 11  1  0
 11 12  1  0
 12 13  2  0
 13 14  1  0
 14 15  2  0
 15 16  1  0
 16 17  2  0
  2 18  1  0
 18 19  1  0
 19 20  1  0
 20 21  2  0
 21 22  1  0
 22 23  2  0
 23 24  1  0
 24 25  2  0
 18 26  1  0
 26 27  1  0
 27 28  2  0
 28 29  1  0
 29 30  2  0
 30 31  1  0
 31 32  2  0
 10  5  1  0
 17 12  1  0
 25 20  1  0
 32 27  1  0
M  END
>  <linear_selectivity>  (976) 
80

>  <denticity>  (976) 
2

>  <ligand_class>  (976) 
diphosphite

$$$$
diphosphite-C2_110C_xylene
     RDKit          2D

 32 35  0  0  0  0  0  0  0  0999 V2000
   -1.9219   -0.0000    0.0000 C   0  0  0  0  0  0  0  0  0  0  0  0
   -0.4219   -0.0000    0.0000 C   0  0  0  0  0  0  0  0  0  0  0  0
    0.3281    1.2990    0.0000 P   0  0  0  0  0  0  0  0  0  0  0  0
    1.8281    1.2990    0.0000 O   0  0  0  0  0  0  0  0  0  0  0  0
    2.5781    2.5981    0.0000 C   0  0  0  0  0  0  0  0  0  0  0  0
    4.0781    2.5981    0.0000 C   0  0  0  0  0  0  0  0  0  0  0  0
    4.8281    3.8971    0.0000 C   0  0  0  0  0  0  0  0  0  0  0  0
    4.0781    5.1962    0.0000 C   0  0  0  0  0  0  0  0  0  0  0  0
    2.5781    5.1962    0.0000 C   0  0  0  0  0  0  0  0  0  0  0  0
    1.8281    3.8971    0.0000 C   0  0  0  0  0  0  0  0  0  0  0  0
   -0.4219    2.5981    0.0000 O   0  0  0  0  0  0  0  0  0  0  0  0
   -1.9219    2.5981    0.0000 C   0  0  0  0  0  0  0  0  0  0  0  0
   -2.6719    3.8971    0.0000 C   0  0  0  0  0  0  0  0  0  0  0  0
   -4.1719    3.8971    0.0000 C   0  0  0  0  0  0  0  0  0  0  0  0
   -4.9219    2.5981    0.0000 C   0  0  0  0  0  0  0  0  0  0  0  0
   -4.1719    1.2990    0.0000 C   0  0  0  0  0  0  0  0  0  0  0  0
   -2.6719    1.2990    0.0000 C   0  0  0  0  0  0  0  0  0  0  0  0
    0.3281   -1.2990    0.0000 P   0  0  0  0  0  0  0  0  0  0  0  0
   -0.4219   -2.5981    0.0000 O   0  0  0  0  0  0  0  0  0  0  0  0
   -1.9219   -2.5981    0.0000 C   0  0  0  0  0  0  0  0  0  0  0  0
   -2.6719   -3.8971    0.0000 C   0  0  0  0  0  0  0  0  0  0  0  0
   -4.1719   -3.8971    0.0000 C   0  0  0  0  0  0  0  0  0  0  0  0
   -4.9219   -2.5981    0.0000 C   0  0  0  0  0  0  0  0  0  0  0  0
   -4.1719   -1.2990    0.0000 C   0  0  0  0  0  0  0  0  0  0  0  0
   -2.6719   -1.2990    0.0000 C   0  0  0  0  0  0  0  0  0  0  0  0
    1.8281   -1.2990    0.0000 O   0  0  0  0  0  0  0  0  0  0  0  0
    2.5781   -2.5981    0.0000 C   0  0  0  0  0  0  0  0  0  0  0  0
    1.8281   -3.8971    0.0000 C   0  0  0  0  0  0  0  0  0  0  0  0
    2.5781   -5.1962    0.0000 C   0  0  0  0  0  0  0  0  0  0  0  0
    4.0781   -5.1962    0.0000 C   0  0  0  0  0  0  0  0  0  0  0  0
    4.8281   -3.8971    0.0000 C   0  0  0  0  0  0  0  0  0  0  0  0
    4.0781   -2.5981    0.0000 C   0  0  0  0  0  0  0  0  0  0  0  0
  1  2  1  0
  2  3  1  0
  3  4  1  0
  4  5  1  0
  5  6  2  0
  6  7  1  0
  7  8  2  0
  8  9  1  0
  9 10  2  0
  3 11  1  0
 11 12  1  0
 12 13  2  0
 13 14  1  0
 14 15  2  0
 15 16  1  0
 16 17  2  0
  2 18  1  0
 18 19  1  0
 19 20  1  0
 20 21  2  0
 21 22  1  0
 22 23  2  0
 23 24  1  0
 24 25  2  0
 18 26  1  0
 26 27  1  0
 27 28  2  0
 28 29  1  0
 29 30  2  0
 30 31  1  0
 31 32  2  0
 10  5  1  0
 17 12  1  0
 25 20  1  0
 32 27  1  0
M  END
>  <linear_selectivity>  (977) 
80

>  <denticity>  (977) 
2

>  <ligand_class>  (977) 
diphosphite

$$$$
diphosphite-C2_120C_toluene
     RDKit          2D

 32 35  0  0  0  0  0  0  0  0999 V2000
   -1.9219   -0.0000    0.0000 C   0  0  0  0  0  0  0  0  0  0  0  0
   -0.4219   -0.0000    0.0000 C   0  0  0  0  0  0  0  0  0  0  0  0
    0.3281    1.2990    0.0000 P   0  0  0  0  0  0  0  0  0  0  0  0
    1.8281    1.2990    0.0000 O   0  0  0  0  0  0  0  0  0  0  0  0
    2.5781    2.5981    0.0000 C   0  0  0  0  0  0  0  0  0  0  0  0
    4.0781    2.5981    0.0000 C   0  0  0  0  0  0  0  0  0  0  0  0
    4.8281    3.8971    0.0000 C   0  0  0  0  0  0  0  0  0  0  0  0
    4.0781    5.1962    0.0000 C   0  0  0  0  0  0  0  0  0  0  0  0
    2.5781    5.1962    0.0000 C   0  0  0  0  0  0  0  0  0  0  0  0
    1.8281    3.8971    0.0000 C   0  0  0  0  0  0  0  0  0  0  0  0
   -0.4219    2.5981    0.0000 O   0  0  0  0  0  0  0  0  0  0  0  0
   -1.9219    2.5981    0.0000 C   0  0  0  0  0  0  0  0  0  0  0  0
   -2.6719    3.8971    0.0000 C   0  0  0  0  0  0  0  0  0  0  0  0
   -4.1719    3.8971    0.0000 C   0  0  0  0  0  0  0  0  0  0  0  0
   -4.9219    2.5981    0.0000 C   0  0  0  0  0  0  0  0  0  0  0  0
   -4.1719    1.2990    0.0000 C   0  0  0  0  0  0  0  0  0  0  0  0
   -2.6719    1.2990    0.0000 C   0  0  0  0  0  0  0  0  0  0  0  0
    0.3281   -1.2990    0.0000 P   0  0  0  0  0  0  0  0  0  0  0  0
   -0.4219   -2.5981    0.0000 O   0  0  0  0  0  0  0  0  0  0  0  0
   -1.9219   -2.5981    0.0000 C   0  0  0  0  0  0  0  0  0  0  0  0
   -2.6719   -3.8971    0.0000 C   0  0  0  0  0  0  0  0  0  0  0  0
   -4.1719   -3.8971    0.0000 C   0  0  0  0  0  0  0  0  0  0  0  0
   -4.9219   -2.5981    0.0000 C   0  0  0  0  0  0  0  0  0  0  0  0
   -4.1719   -1.2990    0.0000 C   0  0  0  0  0  0  0  0  0  0  0  0
   -2.6719   -1.2990    0.0000 C   0  0  0  0  0  0  0  0  0  0  0  0
    1.8281   -1.2990    0.0000 O   0  0  0  0  0  0  0  0  0  0  0  0
    2.5781   -2.5981    0.0000 C   0  0  0  0  0  0  0  0  0  0  0  0
    1.8281   -3.8971    0.0000 C   0  0  0  0  0  0  0  0  0  0  0  0
    2.5781   -5.1962    0.0000 C   0  0  0  0  0  0  0  0  0  0  0  0
    4.0781   -5.1962    0.0000 C   0  0  0  0  0  0  0  0  0  0  0  0
    4.8281   -3.8971    0.0000 C   0  0  0  0  0  0  0  0  0  0  0  0
    4.0781   -2.5981    0.0000 C   0  0  0  0  0  0  0  0  0  0  0  0
  1  2  1  0
  2  3  1  0
  3  4  1  0
  4  5  1  0
  5  6  2  0
  6  7  1  0
  7  8  2  0
  8  9  1  0
  9 10  2  0
  3 11  1  0
 11 12  1  0
 12 13  2  0
 13 14  1  0
 14 15  2  0
 15 16  1  0
 16 17  2  0
  2 18  1  0
 18 19  1  0
 19 20  1  0
 20 21  2  0
 21 22  1  0
 22 23  2  0
 23 24  1  0
 24 25  2  0
 18 26  1  0
 26 27  1  0
 27 28  2  0
 28 29  1  0
 29 30  2  0
 30 31  1  0
 31 32  2  0
 10  5  1  0
 17 12  1  0
 25 20  1  0
 32 27  1  0
M  END
>  <linear_selectivity>  (978) 
73

>  <denticity>  (978) 
2

>  <ligand_class>  (978) 
diphosphite

$$$$
diphosphite-C2_120C_THF
     RDKit          2D

 32 35  0  0  0  0  0  0  0  0999 V2000
   -1.9219   -0.0000    0.0000 C   0  0  0  0  0  0  0  0  0  0  0  0
   -0.4219   -0.0000    0.0000 C   0  0  0  0  0  0  0  0  0  0  0  0
    0.3281    1.2990    0.0000 P   0  0  0  0  0  0  0  0  0  0  0  0
    1.8281    1.2990    0.0000 O   0  0  0  0  0  0  0  0  0  0  0  0
    2.5781    2.5981    0.0000 C   0  0  0  0  0  0  0  0  0  0  0  0
    4.0781    2.5981    0.0000 C   0  0  0  0  0  0  0  0  0  0  0  0
    4.8281    3.8971    0.0000 C   0  0  0  0  0  0  0  0  0  0  0  0
    4.0781    5.1962    0.0000 C   0  0  0  0  0  0  0  0  0  0  0  0
    2.5781    5.1962    0.0000 C   0  0  0  0  0  0  0  0  0  0  0  0
    1.8281    3.8971    0.0000 C   0  0  0  0  0  0  0  0  0  0  0  0
   -0.4219    2.5981    0.0000 O   0  0  0  0  0  0  0  0  0  0  0  0
   -1.9219    2.5981    0.0000 C   0  0  0  0  0  0  0  0  0  0  0  0
   -2.6719    3.8971    0.0000 C   0  0  0  0  0  0  0  0  0  0  0  0
   -4.1719    3.8971    0.0000 C   0  0  0  0  0  0  0  0  0  0  0  0
   -4.9219    2.5981    0.0000 C   0  0  0  0  0  0  0  0  0  0  0  0
   -4.1719    1.2990    0.0000 C   0  0  0  0  0  0  0  0  0  0  0  0
   -2.6719    1.2990    0.0000 C   0  0  0  0  0  0  0  0  0  0  0  0
    0.3281   -1.2990    0.0000 P   0  0  0  0  0  0  0  0  0  0  0  0
   -0.4219   -2.5981    0.0000 O   0  0  0  0  0  0  0  0  0  0  0  0
   -1.9219   -2.5981    0.0000 C   0  0  0  0  0  0  0  0  0  0  0  0
   -2.6719   -3.8971    0.0000 C   0  0  0  0  0  0  0  0  0  0  0  0
   -4.1719   -3.8971    0.0000 C   0  0  0  0  0  0  0  0  0  0  0  0
   -4.9219   -2.5981    0.0000 C   0  0  0  0  0  0  0  0  0  0  0  0
   -4.1719   -1.2990    0.0000 C   0  0  0  0  0  0  0  0  0  0  0  0
   -2.6719   -1.2990    0.0000 C   0  0  0  0  0  0  0  0  0  0  0  0
    1.8281   -1.2990    0.0000 O   0  0  0  0  0  0  0  0  0  0  0  0
    2.5781   -2.5981    0.0000 C   0  0  0  0  0  0  0  0  0  0  0  0
    1.8281   -3.8971    0.0000 C   0  0  0  0  0  0  0  0  0  0  0  0
    2.5781   -5.1962    0.0000 C   0  0  0  0  0  0  0  0  0  0  0  0
    4.0781   -5.1962    0.0000 C   0  0  0  0  0  0  0  0  0  0  0  0
    4.8281   -3.8971    0.0000 C   0  0  0  0  0  0  0  0  0  0  0  0
    4.0781   -2.5981    0.0000 C   0  0  0  0  0  0  0  0  0  0  0  0
  1  2  1  0
  2  3  1  0
  3  4  1  0
  4  5  1  0
  5  6  2  0
  6  7  1  0
  7  8  2  0
  8  9  1  0
  9 10  2  0
  3 11  1  0
 11 12  1  0
 12 13  2  0
 13 14  1  0
 14 15  2  0
 15 16  1  0
 16 17  2  0
  2 18  1  0
 18 19  1  0
 19 20  1  0
 20 21  2  0
 21 22  1  0
 22 23  2  0
 23 24  1  0
 24 25  2  0
 18 26  1  0
 26 27  1  0
 27 28  2  0
 28 29  1  0
 29 30  2  0
 30 31  1  0
 31 32  2  0
 10  5  1  0
 17 12  1  0
 25 20  1  0
 32 27  1  0
M  END
>  <linear_selectivity>  (979) 
70

>  <denticity>  (979) 
2

>  <ligand_class>  (979) 
diphosphite

$$$$
diphosphite-C2_120C_dioxane
     RDKit          2D

 32 35  0  0  0  0  0  0  0  0999 V2000
   -1.9219   -0.0000    0.0000 C   0  0  0  0  0  0  0  0  0  0  0  0
   -0.4219   -0.0000    0.0000 C   0  0  0  0  0  0  0  0  0  0  0  0
    0.3281    1.2990    0.0000 P   0  0  0  0  0  0  0  0  0  0  0  0
    1.8281    1.2990    0.0000 O   0  0  0  0  0  0  0  0  0  0  0  0
    2.5781    2.5981    0.0000 C   0  0  0  0  0  0  0  0  0  0  0  0
    4.0781    2.5981    0.0000 C   0  0  0  0  0  0  0  0  0  0  0  0
    4.8281    3.8971    0.0000 C   0  0  0  0  0  0  0  0  0  0  0  0
    4.0781    5.1962    0.0000 C   0  0  0  0  0  0  0  0  0  0  0  0
    2.5781    5.1962    0.0000 C   0  0  0  0  0  0  0  0  0  0  0  0
    1.8281    3.8971    0.0000 C   0  0  0  0  0  0  0  0  0  0  0  0
   -0.4219    2.5981    0.0000 O   0  0  0  0  0  0  0  0  0  0  0  0
   -1.9219    2.5981    0.0000 C   0  0  0  0  0  0  0  0  0  0  0  0
   -2.6719    3.8971    0.0000 C   0  0  0  0  0  0  0  0  0  0  0  0
   -4.1719    3.8971    0.0000 C   0  0  0  0  0  0  0  0  0  0  0  0
   -4.9219    2.5981    0.0000 C   0  0  0  0  0  0  0  0  0  0  0  0
   -4.1719    1.2990    0.0000 C   0  0  0  0  0  0  0  0  0  0  0  0
   -2.6719    1.2990    0.0000 C   0  0  0  0  0  0  0  0  0  0  0  0
    0.3281   -1.2990    0.0000 P   0  0  0  0  0  0  0  0  0  0  0  0
   -0.4219   -2.5981    0.0000 O   0  0  0  0  0  0  0  0  0  0  0  0
   -1.9219   -2.5981    0.0000 C   0  0  0  0  0  0  0  0  0  0  0  0
   -2.6719   -3.8971    0.0000 C   0  0  0  0  0  0  0  0  0  0  0  0
   -4.1719   -3.8971    0.0000 C   0  0  0  0  0  0  0  0  0  0  0  0
   -4.9219   -2.5981    0.0000 C   0  0  0  0  0  0  0  0  0  0  0  0
   -4.1719   -1.2990    0.0000 C   0  0  0  0  0  0  0  0  0  0  0  0
   -2.6719   -1.2990    0.0000 C   0  0  0  0  0  0  0  0  0  0  0  0
    1.8281   -1.2990    0.0000 O   0  0  0  0  0  0  0  0  0  0  0  0
    2.5781   -2.5981    0.0000 C   0  0  0  0  0  0  0  0  0  0  0  0
    1.8281   -3.8971    0.0000 C   0  0  0  0  0  0  0  0  0  0  0  0
    2.5781   -5.1962    0.0000 C   0  0  0  0  0  0  0  0  0  0  0  0
    4.0781   -5.1962    0.0000 C   0  0  0  0  0  0  0  0  0  0  0  0
    4.8281   -3.8971    0.0000 C   0  0  0  0  0  0  0  0  0  0  0  0
    4.0781   -2.5981    0.0000 C   0  0  0  0  0  0  0  0  0  0  0  0
  1  2  1  0
  2  3  1  0
  3  4  1  0
  4  5  1  0
  5  6  2  0
  6  7  1  0
  7  8  2  0
  8  9  1  0
  9 10  2  0
  3 11  1  0
 11 12  1  0
 12 13  2  0
 13 14  1  0
 14 15  2  0
 15 16  1  0
 16 17  2  0
  2 18  1  0
 18 19  1  0
 19 20  1  0
 20 21  2  0
 21 22  1  0
 22 23  2  0
 23 24  1  0
 24 25  2  0
 18 26  1  0
 26 27  1  0
 27 28  2  0
 28 29  1  0
 29 30  2  0
 30 31  1  0
 31 32  2  0
 10  5  1  0
 17 12  1  0
 25 20  1  0
 32 27  1  0
M  END
>  <linear_selectivity>  (980) 
70

>  <denticity>  (980) 
2

>  <ligand_class>  (980) 
diphosphite

$$$$
diphosphite-C2_120C_benzene
     RDKit          2D

 32 35  0  0  0  0  0  0  0  0999 V2000
   -1.9219   -0.0000    0.0000 C   0  0  0  0  0  0  0  0  0  0  0  0
   -0.4219   -0.0000    0.0000 C   0  0  0  0  0  0  0  0  0  0  0  0
    0.3281    1.2990    0.0000 P   0  0  0  0  0  0  0  0  0  0  0  0
    1.8281    1.2990    0.0000 O   0  0  0  0  0  0  0  0  0  0  0  0
    2.5781    2.5981    0.0000 C   0  0  0  0  0  0  0  0  0  0  0  0
    4.0781    2.5981    0.0000 C   0  0  0  0  0  0  0  0  0  0  0  0
    4.8281    3.8971    0.0000 C   0  0  0  0  0  0  0  0  0  0  0  0
    4.0781    5.1962    0.0000 C   0  0  0  0  0  0  0  0  0  0  0  0
    2.5781    5.1962    0.0000 C   0  0  0  0  0  0  0  0  0  0  0  0
    1.8281    3.8971    0.0000 C   0  0  0  0  0  0  0  0  0  0  0  0
   -0.4219    2.5981    0.0000 O   0  0  0  0  0  0  0  0  0  0  0  0
   -1.9219    2.5981    0.0000 C   0  0  0  0  0  0  0  0  0  0  0  0
   -2.6719    3.8971    0.0000 C   0  0  0  0  0  0  0  0  0  0  0  0
   -4.1719    3.8971    0.0000 C   0  0  0  0  0  0  0  0  0  0  0  0
   -4.9219    2.5981    0.0000 C   0  0  0  0  0  0  0  0  0  0  0  0
   -4.1719    1.2990    0.0000 C   0  0  0  0  0  0  0  0  0  0  0  0
   -2.6719    1.2990    0.0000 C   0  0  0  0  0  0  0  0  0  0  0  0
    0.3281   -1.2990    0.0000 P   0  0  0  0  0  0  0  0  0  0  0  0
   -0.4219   -2.5981    0.0000 O   0  0  0  0  0  0  0  0  0  0  0  0
   -1.9219   -2.5981    0.0000 C   0  0  0  0  0  0  0  0  0  0  0  0
   -2.6719   -3.8971    0.0000 C   0  0  0  0  0  0  0  0  0  0  0  0
   -4.1719   -3.8971    0.0000 C   0  0  0  0  0  0  0  0  0  0  0  0
   -4.9219   -2.5981    0.0000 C   0  0  0  0  0  0  0  0  0  0  0  0
   -4.1719   -1.2990    0.0000 C   0  0  0  0  0  0  0  0  0  0  0  0
   -2.6719   -1.2990    0.0000 C   0  0  0  0  0  0  0  0  0  0  0  0
    1.8281   -1.2990    0.0000 O   0  0  0  0  0  0  0  0  0  0  0  0
    2.5781   -2.5981    0.0000 C   0  0  0  0  0  0  0  0  0  0  0  0
    1.8281   -3.8971    0.0000 C   0  0  0  0  0  0  0  0  0  0  0  0
    2.5781   -5.1962    0.0000 C   0  0  0  0  0  0  0  0  0  0  0  0
    4.0781   -5.1962    0.0000 C   0  0  0  0  0  0  0  0  0  0  0  0
    4.8281   -3.8971    0.0000 C   0  0  0  0  0  0  0  0  0  0  0  0
    4.0781   -2.5981    0.0000 C   0  0  0  0  0  0  0  0  0  0  0  0
  1  2  1  0
  2  3  1  0
  3  4  1  0
  4  5  1  0
  5  6  2  0
  6  7  1  0
  7  8  2  0
  8  9  1  0
  9 10  2  0
  3 11  1  0
 11 12  1  0
 12 13  2  0
 13 14  1  0
 14 15  2  0
 15 16  1  0
 16 17  2  0
  2 18  1  0
 18 19  1  0
 19 20  1  0
 20 21  2  0
 21 22  1  0
 22 23  2  0
 23 24  1  0
 24 25  2  0
 18 26  1  0
 26 27  1  0
 27 28  2  0
 28 29  1  0
 29 30  2  0
 30 31  1  0
 31 32  2  0
 10  5  1  0
 17 12  1  0
 25 20  1  0
 32 27  1  0
M  END
>  <linear_selectivity>  (981) 
70

>  <denticity>  (981) 
2

>  <ligand_class>  (981) 
diphosphite

$$$$
diphosphite-C2_120C_xylene
     RDKit          2D

 32 35  0  0  0  0  0  0  0  0999 V2000
   -1.9219   -0.0000    0.0000 C   0  0  0  0  0  0  0  0  0  0  0  0
   -0.4219   -0.0000    0.0000 C   0  0  0  0  0  0  0  0  0  0  0  0
    0.3281    1.2990    0.0000 P   0  0  0  0  0  0  0  0  0  0  0  0
    1.8281    1.2990    0.0000 O   0  0  0  0  0  0  0  0  0  0  0  0
    2.5781    2.5981    0.0000 C   0  0  0  0  0  0  0  0  0  0  0  0
    4.0781    2.5981    0.0000 C   0  0  0  0  0  0  0  0  0  0  0  0
    4.8281    3.8971    0.0000 C   0  0  0  0  0  0  0  0  0  0  0  0
    4.0781    5.1962    0.0000 C   0  0  0  0  0  0  0  0  0  0  0  0
    2.5781    5.1962    0.0000 C   0  0  0  0  0  0  0  0  0  0  0  0
    1.8281    3.8971    0.0000 C   0  0  0  0  0  0  0  0  0  0  0  0
   -0.4219    2.5981    0.0000 O   0  0  0  0  0  0  0  0  0  0  0  0
   -1.9219    2.5981    0.0000 C   0  0  0  0  0  0  0  0  0  0  0  0
   -2.6719    3.8971    0.0000 C   0  0  0  0  0  0  0  0  0  0  0  0
   -4.1719    3.8971    0.0000 C   0  0  0  0  0  0  0  0  0  0  0  0
   -4.9219    2.5981    0.0000 C   0  0  0  0  0  0  0  0  0  0  0  0
   -4.1719    1.2990    0.0000 C   0  0  0  0  0  0  0  0  0  0  0  0
   -2.6719    1.2990    0.0000 C   0  0  0  0  0  0  0  0  0  0  0  0
    0.3281   -1.2990    0.0000 P   0  0  0  0  0  0  0  0  0  0  0  0
   -0.4219   -2.5981    0.0000 O   0  0  0  0  0  0  0  0  0  0  0  0
   -1.9219   -2.5981    0.0000 C   0  0  0  0  0  0  0  0  0  0  0  0
   -2.6719   -3.8971    0.0000 C   0  0  0  0  0  0  0  0  0  0  0  0
   -4.1719   -3.8971    0.0000 C   0  0  0  0  0  0  0  0  0  0  0  0
   -4.9219   -2.5981    0.0000 C   0  0  0  0  0  0  0  0  0  0  0  0
   -4.1719   -1.2990    0.0000 C   0  0  0  0  0  0  0  0  0  0  0  0
   -2.6719   -1.2990    0.0000 C   0  0  0  0  0  0  0  0  0  0  0  0
    1.8281   -1.2990    0.0000 O   0  0  0  0  0  0  0  0  0  0  0  0
    2.5781   -2.5981    0.0000 C   0  0  0  0  0  0  0  0  0  0  0  0
    1.8281   -3.8971    0.0000 C   0  0  0  0  0  0  0  0  0  0  0  0
    2.5781   -5.1962    0.0000 C   0  0  0  0  0  0  0  0  0  0  0  0
    4.0781   -5.1962    0.0000 C   0  0  0  0  0  0  0  0  0  0  0  0
    4.8281   -3.8971    0.0000 C   0  0  0  0  0  0  0  0  0  0  0  0
    4.0781   -2.5981    0.0000 C   0  0  0  0  0  0  0  0  0  0  0  0
  1  2  1  0
  2  3  1  0
  3  4  1  0
  4  5  1  0
  5  6  2  0
  6  7  1  0
  7  8  2  0
  8  9  1  0
  9 10  2  0
  3 11  1  0
 11 12  1  0
 12 13  2  0
 13 14  1  0
 14 15  2  0
 15 16  1  0
 16 17  2  0
  2 18  1  0
 18 19  1  0
 19 20  1  0
 20 21  2  0
 21 22  1  0
 22 23  2  0
 23 24  1  0
 24 25  2  0
 18 26  1  0
 26 27  1  0
 27 28  2  0
 28 29  1  0
 29 30  2  0
 30 31  1  0
 31 32  2  0
 10  5  1  0
 17 12  1  0
 25 20  1  0
 32 27  1  0
M  END
>  <linear_selectivity>  (982) 
75

>  <denticity>  (982) 
2

>  <ligand_class>  (982) 
diphosphite

$$$$
diphosphite-C2_130C_toluene
     RDKit          2D

 32 35  0  0  0  0  0  0  0  0999 V2000
   -1.9219   -0.0000    0.0000 C   0  0  0  0  0  0  0  0  0  0  0  0
   -0.4219   -0.0000    0.0000 C   0  0  0  0  0  0  0  0  0  0  0  0
    0.3281    1.2990    0.0000 P   0  0  0  0  0  0  0  0  0  0  0  0
    1.8281    1.2990    0.0000 O   0  0  0  0  0  0  0  0  0  0  0  0
    2.5781    2.5981    0.0000 C   0  0  0  0  0  0  0  0  0  0  0  0
    4.0781    2.5981    0.0000 C   0  0  0  0  0  0  0  0  0  0  0  0
    4.8281    3.8971    0.0000 C   0  0  0  0  0  0  0  0  0  0  0  0
    4.0781    5.1962    0.0000 C   0  0  0  0  0  0  0  0  0  0  0  0
    2.5781    5.1962    0.0000 C   0  0  0  0  0  0  0  0  0  0  0  0
    1.8281    3.8971    0.0000 C   0  0  0  0  0  0  0  0  0  0  0  0
   -0.4219    2.5981    0.0000 O   0  0  0  0  0  0  0  0  0  0  0  0
   -1.9219    2.5981    0.0000 C   0  0  0  0  0  0  0  0  0  0  0  0
   -2.6719    3.8971    0.0000 C   0  0  0  0  0  0  0  0  0  0  0  0
   -4.1719    3.8971    0.0000 C   0  0  0  0  0  0  0  0  0  0  0  0
   -4.9219    2.5981    0.0000 C   0  0  0  0  0  0  0  0  0  0  0  0
   -4.1719    1.2990    0.0000 C   0  0  0  0  0  0  0  0  0  0  0  0
   -2.6719    1.2990    0.0000 C   0  0  0  0  0  0  0  0  0  0  0  0
    0.3281   -1.2990    0.0000 P   0  0  0  0  0  0  0  0  0  0  0  0
   -0.4219   -2.5981    0.0000 O   0  0  0  0  0  0  0  0  0  0  0  0
   -1.9219   -2.5981    0.0000 C   0  0  0  0  0  0  0  0  0  0  0  0
   -2.6719   -3.8971    0.0000 C   0  0  0  0  0  0  0  0  0  0  0  0
   -4.1719   -3.8971    0.0000 C   0  0  0  0  0  0  0  0  0  0  0  0
   -4.9219   -2.5981    0.0000 C   0  0  0  0  0  0  0  0  0  0  0  0
   -4.1719   -1.2990    0.0000 C   0  0  0  0  0  0  0  0  0  0  0  0
   -2.6719   -1.2990    0.0000 C   0  0  0  0  0  0  0  0  0  0  0  0
    1.8281   -1.2990    0.0000 O   0  0  0  0  0  0  0  0  0  0  0  0
    2.5781   -2.5981    0.0000 C   0  0  0  0  0  0  0  0  0  0  0  0
    1.8281   -3.8971    0.0000 C   0  0  0  0  0  0  0  0  0  0  0  0
    2.5781   -5.1962    0.0000 C   0  0  0  0  0  0  0  0  0  0  0  0
    4.0781   -5.1962    0.0000 C   0  0  0  0  0  0  0  0  0  0  0  0
    4.8281   -3.8971    0.0000 C   0  0  0  0  0  0  0  0  0  0  0  0
    4.0781   -2.5981    0.0000 C   0  0  0  0  0  0  0  0  0  0  0  0
  1  2  1  0
  2  3  1  0
  3  4  1  0
  4  5  1  0
  5  6  2  0
  6  7  1  0
  7  8  2  0
  8  9  1  0
  9 10  2  0
  3 11  1  0
 11 12  1  0
 12 13  2  0
 13 14  1  0
 14 15  2  0
 15 16  1  0
 16 17  2  0
  2 18  1  0
 18 19  1  0
 19 20  1  0
 20 21  2  0
 21 22  1  0
 22 23  2  0
 23 24  1  0
 24 25  2  0
 18 26  1  0
 26 27  1  0
 27 28  2  0
 28 29  1  0
 29 30  2  0
 30 31  1  0
 31 32  2  0
 10  5  1  0
 17 12  1  0
 25 20  1  0
 32 27  1  0
M  END
>  <linear_selectivity>  (983) 
64

>  <denticity>  (983) 
2

>  <ligand_class>  (983) 
diphosphite

$$$$
diphosphite-C2_130C_dioxane
     RDKit          2D

 32 35  0  0  0  0  0  0  0  0999 V2000
   -1.9219   -0.0000    0.0000 C   0  0  0  0  0  0  0  0  0  0  0  0
   -0.4219   -0.0000    0.0000 C   0  0  0  0  0  0  0  0  0  0  0  0
    0.3281    1.2990    0.0000 P   0  0  0  0  0  0  0  0  0  0  0  0
    1.8281    1.2990    0.0000 O   0  0  0  0  0  0  0  0  0  0  0  0
    2.5781    2.5981    0.0000 C   0  0  0  0  0  0  0  0  0  0  0  0
    4.0781    2.5981    0.0000 C   0  0  0  0  0  0  0  0  0  0  0  0
    4.8281    3.8971    0.0000 C   0  0  0  0  0  0  0  0  0  0  0  0
    4.0781    5.1962    0.0000 C   0  0  0  0  0  0  0  0  0  0  0  0
    2.5781    5.1962    0.0000 C   0  0  0  0  0  0  0  0  0  0  0  0
    1.8281    3.8971    0.0000 C   0  0  0  0  0  0  0  0  0  0  0  0
   -0.4219    2.5981    0.0000 O   0  0  0  0  0  0  0  0  0  0  0  0
   -1.9219    2.5981    0.0000 C   0  0  0  0  0  0  0  0  0  0  0  0
   -2.6719    3.8971    0.0000 C   0  0  0  0  0  0  0  0  0  0  0  0
   -4.1719    3.8971    0.0000 C   0  0  0  0  0  0  0  0  0  0  0  0
   -4.9219    2.5981    0.0000 C   0  0  0  0  0  0  0  0  0  0  0  0
   -4.1719    1.2990    0.0000 C   0  0  0  0  0  0  0  0  0  0  0  0
   -2.6719    1.2990    0.0000 C   0  0  0  0  0  0  0  0  0  0  0  0
    0.3281   -1.2990    0.0000 P   0  0  0  0  0  0  0  0  0  0  0  0
   -0.4219   -2.5981    0.0000 O   0  0  0  0  0  0  0  0  0  0  0  0
   -1.9219   -2.5981    0.0000 C   0  0  0  0  0  0  0  0  0  0  0  0
   -2.6719   -3.8971    0.0000 C   0  0  0  0  0  0  0  0  0  0  0  0
   -4.1719   -3.8971    0.0000 C   0  0  0  0  0  0  0  0  0  0  0  0
   -4.9219   -2.5981    0.0000 C   0  0  0  0  0  0  0  0  0  0  0  0
   -4.1719   -1.2990    0.0000 C   0  0  0  0  0  0  0  0  0  0  0  0
   -2.6719   -1.2990    0.0000 C   0  0  0  0  0  0  0  0  0  0  0  0
    1.8281   -1.2990    0.0000 O   0  0  0  0  0  0  0  0  0  0  0  0
    2.5781   -2.5981    0.0000 C   0  0  0  0  0  0  0  0  0  0  0  0
    1.8281   -3.8971    0.0000 C   0  0  0  0  0  0  0  0  0  0  0  0
    2.5781   -5.1962    0.0000 C   0  0  0  0  0  0  0  0  0  0  0  0
    4.0781   -5.1962    0.0000 C   0  0  0  0  0  0  0  0  0  0  0  0
    4.8281   -3.8971    0.0000 C   0  0  0  0  0  0  0  0  0  0  0  0
    4.0781   -2.5981    0.0000 C   0  0  0  0  0  0  0  0  0  0  0  0
  1  2  1  0
  2  3  1  0
  3  4  1  0
  4  5  1  0
  5  6  2  0
  6  7  1  0
  7  8  2  0
  8  9  1  0
  9 10  2  0
  3 11  1  0
 11 12  1  0
 12 13  2  0
 13 14  1  0
 14 15  2  0
 15 16  1  0
 16 17  2  0
  2 18  1  0
 18 19  1  0
 19 20  1  0
 20 21  2  0
 21 22  1  0
 22 23  2  0
 23 24  1  0
 24 25  2  0
 18 26  1  0
 26 27  1  0
 27 28  2  0
 28 29  1  0
 29 30  2  0
 30 31  1  0
 31 32  2  0
 10  5  1  0
 17 12  1  0
 25 20  1  0
 32 27  1  0
M  END
>  <linear_selectivity>  (984) 
67

>  <denticity>  (984) 
2

>  <ligand_class>  (984) 
diphosphite

$$$$
diphosphite-C2_130C_hexane
     RDKit          2D

 32 35  0  0  0  0  0  0  0  0999 V2000
   -1.9219   -0.0000    0.0000 C   0  0  0  0  0  0  0  0  0  0  0  0
   -0.4219   -0.0000    0.0000 C   0  0  0  0  0  0  0  0  0  0  0  0
    0.3281    1.2990    0.0000 P   0  0  0  0  0  0  0  0  0  0  0  0
    1.8281    1.2990    0.0000 O   0  0  0  0  0  0  0  0  0  0  0  0
    2.5781    2.5981    0.0000 C   0  0  0  0  0  0  0  0  0  0  0  0
    4.0781    2.5981    0.0000 C   0  0  0  0  0  0  0  0  0  0  0  0
    4.8281    3.8971    0.0000 C   0  0  0  0  0  0  0  0  0  0  0  0
    4.0781    5.1962    0.0000 C   0  0  0  0  0  0  0  0  0  0  0  0
    2.5781    5.1962    0.0000 C   0  0  0  0  0  0  0  0  0  0  0  0
    1.8281    3.8971    0.0000 C   0  0  0  0  0  0  0  0  0  0  0  0
   -0.4219    2.5981    0.0000 O   0  0  0  0  0  0  0  0  0  0  0  0
   -1.9219    2.5981    0.0000 C   0  0  0  0  0  0  0  0  0  0  0  0
   -2.6719    3.8971    0.0000 C   0  0  0  0  0  0  0  0  0  0  0  0
   -4.1719    3.8971    0.0000 C   0  0  0  0  0  0  0  0  0  0  0  0
   -4.9219    2.5981    0.0000 C   0  0  0  0  0  0  0  0  0  0  0  0
   -4.1719    1.2990    0.0000 C   0  0  0  0  0  0  0  0  0  0  0  0
   -2.6719    1.2990    0.0000 C   0  0  0  0  0  0  0  0  0  0  0  0
    0.3281   -1.2990    0.0000 P   0  0  0  0  0  0  0  0  0  0  0  0
   -0.4219   -2.5981    0.0000 O   0  0  0  0  0  0  0  0  0  0  0  0
   -1.9219   -2.5981    0.0000 C   0  0  0  0  0  0  0  0  0  0  0  0
   -2.6719   -3.8971    0.0000 C   0  0  0  0  0  0  0  0  0  0  0  0
   -4.1719   -3.8971    0.0000 C   0  0  0  0  0  0  0  0  0  0  0  0
   -4.9219   -2.5981    0.0000 C   0  0  0  0  0  0  0  0  0  0  0  0
   -4.1719   -1.2990    0.0000 C   0  0  0  0  0  0  0  0  0  0  0  0
   -2.6719   -1.2990    0.0000 C   0  0  0  0  0  0  0  0  0  0  0  0
    1.8281   -1.2990    0.0000 O   0  0  0  0  0  0  0  0  0  0  0  0
    2.5781   -2.5981    0.0000 C   0  0  0  0  0  0  0  0  0  0  0  0
    1.8281   -3.8971    0.0000 C   0  0  0  0  0  0  0  0  0  0  0  0
    2.5781   -5.1962    0.0000 C   0  0  0  0  0  0  0  0  0  0  0  0
    4.0781   -5.1962    0.0000 C   0  0  0  0  0  0  0  0  0  0  0  0
    4.8281   -3.8971    0.0000 C   0  0  0  0  0  0  0  0  0  0  0  0
    4.0781   -2.5981    0.0000 C   0  0  0  0  0  0  0  0  0  0  0  0
  1  2  1  0
  2  3  1  0
  3  4  1  0
  4  5  1  0
  5  6  2  0
  6  7  1  0
  7  8  2  0
  8  9  1  0
  9 10  2  0
  3 11  1  0
 11 12  1  0
 12 13  2  0
 13 14  1  0
 14 15  2  0
 15 16  1  0
 16 17  2  0
  2 18  1  0
 18 19  1  0
 19 20  1  0
 20 21  2  0
 21 22  1  0
 22 23  2  0
 23 24  1  0
 24 25  2  0
 18 26  1  0
 26 27  1  0
 27 28  2  0
 28 29  1  0
 29 30  2  0
 30 31  1  0
 31 32  2  0
 10  5  1  0
 17 12  1  0
 25 20  1  0
 32 27  1  0
M  END
>  <linear_selectivity>  (985) 
69

>  <denticity>  (985) 
2

>  <ligand_class>  (985) 
diphosphite

$$$$
diphosphite-C2_130C_xylene
     RDKit          2D

 32 35  0  0  0  0  0  0  0  0999 V2000
   -1.9219   -0.0000    0.0000 C   0  0  0  0  0  0  0  0  0  0  0  0
   -0.4219   -0.0000    0.0000 C   0  0  0  0  0  0  0  0  0  0  0  0
    0.3281    1.2990    0.0000 P   0  0  0  0  0  0  0  0  0  0  0  0
    1.8281    1.2990    0.0000 O   0  0  0  0  0  0  0  0  0  0  0  0
    2.5781    2.5981    0.0000 C   0  0  0  0  0  0  0  0  0  0  0  0
    4.0781    2.5981    0.0000 C   0  0  0  0  0  0  0  0  0  0  0  0
    4.8281    3.8971    0.0000 C   0  0  0  0  0  0  0  0  0  0  0  0
    4.0781    5.1962    0.0000 C   0  0  0  0  0  0  0  0  0  0  0  0
    2.5781    5.1962    0.0000 C   0  0  0  0  0  0  0  0  0  0  0  0
    1.8281    3.8971    0.0000 C   0  0  0  0  0  0  0  0  0  0  0  0
   -0.4219    2.5981    0.0000 O   0  0  0  0  0  0  0  0  0  0  0  0
   -1.9219    2.5981    0.0000 C   0  0  0  0  0  0  0  0  0  0  0  0
   -2.6719    3.8971    0.0000 C   0  0  0  0  0  0  0  0  0  0  0  0
   -4.1719    3.8971    0.0000 C   0  0  0  0  0  0  0  0  0  0  0  0
   -4.9219    2.5981    0.0000 C   0  0  0  0  0  0  0  0  0  0  0  0
   -4.1719    1.2990    0.0000 C   0  0  0  0  0  0  0  0  0  0  0  0
   -2.6719    1.2990    0.0000 C   0  0  0  0  0  0  0  0  0  0  0  0
    0.3281   -1.2990    0.0000 P   0  0  0  0  0  0  0  0  0  0  0  0
   -0.4219   -2.5981    0.0000 O   0  0  0  0  0  0  0  0  0  0  0  0
   -1.9219   -2.5981    0.0000 C   0  0  0  0  0  0  0  0  0  0  0  0
   -2.6719   -3.8971    0.0000 C   0  0  0  0  0  0  0  0  0  0  0  0
   -4.1719   -3.8971    0.0000 C   0  0  0  0  0  0  0  0  0  0  0  0
   -4.9219   -2.5981    0.0000 C   0  0  0  0  0  0  0  0  0  0  0  0
   -4.1719   -1.2990    0.0000 C   0  0  0  0  0  0  0  0  0  0  0  0
   -2.6719   -1.2990    0.0000 C   0  0  0  0  0  0  0  0  0  0  0  0
    1.8281   -1.2990    0.0000 O   0  0  0  0  0  0  0  0  0  0  0  0
    2.5781   -2.5981    0.0000 C   0  0  0  0  0  0  0  0  0  0  0  0
    1.8281   -3.8971    0.0000 C   0  0  0  0  0  0  0  0  0  0  0  0
    2.5781   -5.1962    0.0000 C   0  0  0  0  0  0  0  0  0  0  0  0
    4.0781   -5.1962    0.0000 C   0  0  0  0  0  0  0  0  0  0  0  0
    4.8281   -3.8971    0.0000 C   0  0  0  0  0  0  0  0  0  0  0  0
    4.0781   -2.5981    0.0000 C   0  0  0  0  0  0  0  0  0  0  0  0
  1  2  1  0
  2  3  1  0
  3  4  1  0
  4  5  1  0
  5  6  2  0
  6  7  1  0
  7  8  2  0
  8  9  1  0
  9 10  2  0
  3 11  1  0
 11 12  1  0
 12 13  2  0
 13 14  1  0
 14 15  2  0
 15 16  1  0
 16 17  2  0
  2 18  1  0
 18 19  1  0
 19 20  1  0
 20 21  2  0
 21 22  1  0
 22 23  2  0
 23 24  1  0
 24 25  2  0
 18 26  1  0
 26 27  1  0
 27 28  2  0
 28 29  1  0
 29 30  2  0
 30 31  1  0
 31 32  2  0
 10  5  1  0
 17 12  1  0
 25 20  1  0
 32 27  1  0
M  END
>  <linear_selectivity>  (986) 
73

>  <denticity>  (986) 
2

>  <ligand_class>  (986) 
diphosphite

$$$$
diphosphite-C3
     RDKit          2D

 33 36  0  0  0  0  0  0  0  0999 V2000
   -2.4629   -0.0791    0.0000 C   0  0  0  0  0  0  0  0  0  0  0  0
   -1.8083    0.3758    0.0000 C   0  0  0  0  0  0  0  0  0  0  0  0
   -0.3369    0.0844    0.0000 C   0  0  0  0  0  0  0  0  0  0  0  0
    0.6512    1.2130    0.0000 P   0  0  0  0  0  0  0  0  0  0  0  0
    2.1226    0.9217    0.0000 O   0  0  0  0  0  0  0  0  0  0  0  0
    3.1106    2.0503    0.0000 C   0  0  0  0  0  0  0  0  0  0  0  0
    4.5821    1.7589    0.0000 C   0  0  0  0  0  0  0  0  0  0  0  0
    5.5701    2.8875    0.0000 C   0  0  0  0  0  0  0  0  0  0  0  0
    5.0867    4.3075    0.0000 C   0  0  0  0  0  0  0  0  0  0  0  0
    3.6153    4.5989    0.0000 C   0  0  0  0  0  0  0  0  0  0  0  0
    2.6273    3.4703    0.0000 C   0  0  0  0  0  0  0  0  0  0  0  0
    0.1678    2.6330    0.0000 O   0  0  0  0  0  0  0  0  0  0  0  0
   -1.3036    2.9244    0.0000 C   0  0  0  0  0  0  0  0  0  0  0  0
   -1.7870    4.3444    0.0000 C   0  0  0  0  0  0  0  0  0  0  0  0
   -3.2585    4.6357    0.0000 C   0  0  0  0  0  0  0  0  0  0  0  0
   -4.2465    3.5071    0.0000 C   0  0  0  0  0  0  0  0  0  0  0  0
   -3.7631    2.0871    0.0000 C   0  0  0  0  0  0  0  0  0  0  0  0
   -2.2917    1.7958    0.0000 C   0  0  0  0  0  0  0  0  0  0  0  0
    0.1465   -1.3356    0.0000 P   0  0  0  0  0  0  0  0  0  0  0  0
   -0.8415   -2.4642    0.0000 O   0  0  0  0  0  0  0  0  0  0  0  0
   -2.3130   -2.1728    0.0000 C   0  0  0  0  0  0  0  0  0  0  0  0
   -3.3010   -3.3014    0.0000 C   0  0  0  0  0  0  0  0  0  0  0  0
   -4.7724   -3.0101    0.0000 C   0  0  0  0  0  0  0  0  0  0  0  0
   -5.2558   -1.5901    0.0000 C   0  0  0  0  0  0  0  0  0  0  0  0
   -4.2678   -0.4615    0.0000 C   0  0  0  0  0  0  0  0  0  0  0  0
   -2.7963   -0.7528    0.0000 C   0  0  0  0  0  0  0  0  0  0  0  0
    1.6179   -1.6269    0.0000 O   0  0  0  0  0  0  0  0  0  0  0  0
    2.1013   -3.0469    0.0000 C   0  0  0  0  0  0  0  0  0  0  0  0
    1.1133   -4.1755    0.0000 C   0  0  0  0  0  0  0  0  0  0  0  0
    1.5967   -5.5955    0.0000 C   0  0  0  0  0  0  0  0  0  0  0  0
    3.0681   -5.8869    0.0000 C   0  0  0  0  0  0  0  0  0  0  0  0
    4.0561   -4.7582    0.0000 C   0  0  0  0  0  0  0  0  0  0  0  0
    3.5728   -3.3383    0.0000 C   0  0  0  0  0  0  0  0  0  0  0  0
  1  2  1  0
  2  3  1  0
  3  4  1  0
  4  5  1  0
  5  6  1  0
  6  7  2  0
  7  8  1  0
  8  9  2  0
  9 10  1  0
 10 11  2  0
  4 12  1  0
 12 13  1  0
 13 14  2  0
 14 15  1  0
 15 16  2  0
 16 17  1  0
 17 18  2  0
  3 19  1  0
 19 20  1  0
 20 21  1  0
 21 22  2  0
 22 23  1  0
 23 24  2  0
 24 25  1  0
 25 26  2  0
 19 27  1  0
 27 28  1  0
 28 29  2  0
 29 30  1  0
 30 31  2  0
 31 32  1  0
 32 33  2  0
 11  6  1  0
 18 13  1  0
 26 21  1  0
 33 28  1  0
M  END
>  <linear_selectivity>  (987) 
82

>  <denticity>  (987) 
2

>  <ligand_class>  (987) 
diphosphite

$$$$
diphosphite-C3_70C_toluene
     RDKit          2D

 33 36  0  0  0  0  0  0  0  0999 V2000
   -2.4629   -0.0791    0.0000 C   0  0  0  0  0  0  0  0  0  0  0  0
   -1.8083    0.3758    0.0000 C   0  0  0  0  0  0  0  0  0  0  0  0
   -0.3369    0.0844    0.0000 C   0  0  0  0  0  0  0  0  0  0  0  0
    0.6512    1.2130    0.0000 P   0  0  0  0  0  0  0  0  0  0  0  0
    2.1226    0.9217    0.0000 O   0  0  0  0  0  0  0  0  0  0  0  0
    3.1106    2.0503    0.0000 C   0  0  0  0  0  0  0  0  0  0  0  0
    4.5821    1.7589    0.0000 C   0  0  0  0  0  0  0  0  0  0  0  0
    5.5701    2.8875    0.0000 C   0  0  0  0  0  0  0  0  0  0  0  0
    5.0867    4.3075    0.0000 C   0  0  0  0  0  0  0  0  0  0  0  0
    3.6153    4.5989    0.0000 C   0  0  0  0  0  0  0  0  0  0  0  0
    2.6273    3.4703    0.0000 C   0  0  0  0  0  0  0  0  0  0  0  0
    0.1678    2.6330    0.0000 O   0  0  0  0  0  0  0  0  0  0  0  0
   -1.3036    2.9244    0.0000 C   0  0  0  0  0  0  0  0  0  0  0  0
   -1.7870    4.3444    0.0000 C   0  0  0  0  0  0  0  0  0  0  0  0
   -3.2585    4.6357    0.0000 C   0  0  0  0  0  0  0  0  0  0  0  0
   -4.2465    3.5071    0.0000 C   0  0  0  0  0  0  0  0  0  0  0  0
   -3.7631    2.0871    0.0000 C   0  0  0  0  0  0  0  0  0  0  0  0
   -2.2917    1.7958    0.0000 C   0  0  0  0  0  0  0  0  0  0  0  0
    0.1465   -1.3356    0.0000 P   0  0  0  0  0  0  0  0  0  0  0  0
   -0.8415   -2.4642    0.0000 O   0  0  0  0  0  0  0  0  0  0  0  0
   -2.3130   -2.1728    0.0000 C   0  0  0  0  0  0  0  0  0  0  0  0
   -3.3010   -3.3014    0.0000 C   0  0  0  0  0  0  0  0  0  0  0  0
   -4.7724   -3.0101    0.0000 C   0  0  0  0  0  0  0  0  0  0  0  0
   -5.2558   -1.5901    0.0000 C   0  0  0  0  0  0  0  0  0  0  0  0
   -4.2678   -0.4615    0.0000 C   0  0  0  0  0  0  0  0  0  0  0  0
   -2.7963   -0.7528    0.0000 C   0  0  0  0  0  0  0  0  0  0  0  0
    1.6179   -1.6269    0.0000 O   0  0  0  0  0  0  0  0  0  0  0  0
    2.1013   -3.0469    0.0000 C   0  0  0  0  0  0  0  0  0  0  0  0
    1.1133   -4.1755    0.0000 C   0  0  0  0  0  0  0  0  0  0  0  0
    1.5967   -5.5955    0.0000 C   0  0  0  0  0  0  0  0  0  0  0  0
    3.0681   -5.8869    0.0000 C   0  0  0  0  0  0  0  0  0  0  0  0
    4.0561   -4.7582    0.0000 C   0  0  0  0  0  0  0  0  0  0  0  0
    3.5728   -3.3383    0.0000 C   0  0  0  0  0  0  0  0  0  0  0  0
  1  2  1  0
  2  3  1  0
  3  4  1  0
  4  5  1  0
  5  6  1  0
  6  7  2  0
  7  8  1  0
  8  9  2  0
  9 10  1  0
 10 11  2  0
  4 12  1  0
 12 13  1  0
 13 14  2  0
 14 15  1  0
 15 16  2  0
 16 17  1  0
 17 18  2  0
  3 19  1  0
 19 20  1  0
 20 21  1  0
 21 22  2  0
 22 23  1  0
 23 24  2  0
 24 25  1  0
 25 26  2  0
 19 27  1  0
 27 28  1  0
 28 29  2  0
 29 30  1  0
 30 31  2  0
 31 32  1  0
 32 33  2  0
 11  6  1  0
 18 13  1  0
 26 21  1  0
 33 28  1  0
M  END
>  <linear_selectivity>  (988) 
91

>  <denticity>  (988) 
2

>  <ligand_class>  (988) 
diphosphite

$$$$
diphosphite-C3_70C_THF
     RDKit          2D

 33 36  0  0  0  0  0  0  0  0999 V2000
   -2.4629   -0.0791    0.0000 C   0  0  0  0  0  0  0  0  0  0  0  0
   -1.8083    0.3758    0.0000 C   0  0  0  0  0  0  0  0  0  0  0  0
   -0.3369    0.0844    0.0000 C   0  0  0  0  0  0  0  0  0  0  0  0
    0.6512    1.2130    0.0000 P   0  0  0  0  0  0  0  0  0  0  0  0
    2.1226    0.9217    0.0000 O   0  0  0  0  0  0  0  0  0  0  0  0
    3.1106    2.0503    0.0000 C   0  0  0  0  0  0  0  0  0  0  0  0
    4.5821    1.7589    0.0000 C   0  0  0  0  0  0  0  0  0  0  0  0
    5.5701    2.8875    0.0000 C   0  0  0  0  0  0  0  0  0  0  0  0
    5.0867    4.3075    0.0000 C   0  0  0  0  0  0  0  0  0  0  0  0
    3.6153    4.5989    0.0000 C   0  0  0  0  0  0  0  0  0  0  0  0
    2.6273    3.4703    0.0000 C   0  0  0  0  0  0  0  0  0  0  0  0
    0.1678    2.6330    0.0000 O   0  0  0  0  0  0  0  0  0  0  0  0
   -1.3036    2.9244    0.0000 C   0  0  0  0  0  0  0  0  0  0  0  0
   -1.7870    4.3444    0.0000 C   0  0  0  0  0  0  0  0  0  0  0  0
   -3.2585    4.6357    0.0000 C   0  0  0  0  0  0  0  0  0  0  0  0
   -4.2465    3.5071    0.0000 C   0  0  0  0  0  0  0  0  0  0  0  0
   -3.7631    2.0871    0.0000 C   0  0  0  0  0  0  0  0  0  0  0  0
   -2.2917    1.7958    0.0000 C   0  0  0  0  0  0  0  0  0  0  0  0
    0.1465   -1.3356    0.0000 P   0  0  0  0  0  0  0  0  0  0  0  0
   -0.8415   -2.4642    0.0000 O   0  0  0  0  0  0  0  0  0  0  0  0
   -2.3130   -2.1728    0.0000 C   0  0  0  0  0  0  0  0  0  0  0  0
   -3.3010   -3.3014    0.0000 C   0  0  0  0  0  0  0  0  0  0  0  0
   -4.7724   -3.0101    0.0000 C   0  0  0  0  0  0  0  0  0  0  0  0
   -5.2558   -1.5901    0.0000 C   0  0  0  0  0  0  0  0  0  0  0  0
   -4.2678   -0.4615    0.0000 C   0  0  0  0  0  0  0  0  0  0  0  0
   -2.7963   -0.7528    0.0000 C   0  0  0  0  0  0  0  0  0  0  0  0
    1.6179   -1.6269    0.0000 O   0  0  0  0  0  0  0  0  0  0  0  0
    2.1013   -3.0469    0.0000 C   0  0  0  0  0  0  0  0  0  0  0  0
    1.1133   -4.1755    0.0000 C   0  0  0  0  0  0  0  0  0  0  0  0
    1.5967   -5.5955    0.0000 C   0  0  0  0  0  0  0  0  0  0  0  0
    3.0681   -5.8869    0.0000 C   0  0  0  0  0  0  0  0  0  0  0  0
    4.0561   -4.7582    0.0000 C   0  0  0  0  0  0  0  0  0  0  0  0
    3.5728   -3.3383    0.0000 C   0  0  0  0  0  0  0  0  0  0  0  0
  1  2  1  0
  2  3  1  0
  3  4  1  0
  4  5  1  0
  5  6  1  0
  6  7  2  0
  7  8  1  0
  8  9  2  0
  9 10  1  0
 10 11  2  0
  4 12  1  0
 12 13  1  0
 13 14  2  0
 14 15  1  0
 15 16  2  0
 16 17  1  0
 17 18  2  0
  3 19  1  0
 19 20  1  0
 20 21  1  0
 21 22  2  0
 22 23  1  0
 23 24  2  0
 24 25  1  0
 25 26  2  0
 19 27  1  0
 27 28  1  0
 28 29  2  0
 29 30  1  0
 30 31  2  0
 31 32  1  0
 32 33  2  0
 11  6  1  0
 18 13  1  0
 26 21  1  0
 33 28  1  0
M  END
>  <linear_selectivity>  (989) 
84

>  <denticity>  (989) 
2

>  <ligand_class>  (989) 
diphosphite

$$$$
diphosphite-C3_70C_dioxane
     RDKit          2D

 33 36  0  0  0  0  0  0  0  0999 V2000
   -2.4629   -0.0791    0.0000 C   0  0  0  0  0  0  0  0  0  0  0  0
   -1.8083    0.3758    0.0000 C   0  0  0  0  0  0  0  0  0  0  0  0
   -0.3369    0.0844    0.0000 C   0  0  0  0  0  0  0  0  0  0  0  0
    0.6512    1.2130    0.0000 P   0  0  0  0  0  0  0  0  0  0  0  0
    2.1226    0.9217    0.0000 O   0  0  0  0  0  0  0  0  0  0  0  0
    3.1106    2.0503    0.0000 C   0  0  0  0  0  0  0  0  0  0  0  0
    4.5821    1.7589    0.0000 C   0  0  0  0  0  0  0  0  0  0  0  0
    5.5701    2.8875    0.0000 C   0  0  0  0  0  0  0  0  0  0  0  0
    5.0867    4.3075    0.0000 C   0  0  0  0  0  0  0  0  0  0  0  0
    3.6153    4.5989    0.0000 C   0  0  0  0  0  0  0  0  0  0  0  0
    2.6273    3.4703    0.0000 C   0  0  0  0  0  0  0  0  0  0  0  0
    0.1678    2.6330    0.0000 O   0  0  0  0  0  0  0  0  0  0  0  0
   -1.3036    2.9244    0.0000 C   0  0  0  0  0  0  0  0  0  0  0  0
   -1.7870    4.3444    0.0000 C   0  0  0  0  0  0  0  0  0  0  0  0
   -3.2585    4.6357    0.0000 C   0  0  0  0  0  0  0  0  0  0  0  0
   -4.2465    3.5071    0.0000 C   0  0  0  0  0  0  0  0  0  0  0  0
   -3.7631    2.0871    0.0000 C   0  0  0  0  0  0  0  0  0  0  0  0
   -2.2917    1.7958    0.0000 C   0  0  0  0  0  0  0  0  0  0  0  0
    0.1465   -1.3356    0.0000 P   0  0  0  0  0  0  0  0  0  0  0  0
   -0.8415   -2.4642    0.0000 O   0  0  0  0  0  0  0  0  0  0  0  0
   -2.3130   -2.1728    0.0000 C   0  0  0  0  0  0  0  0  0  0  0  0
   -3.3010   -3.3014    0.0000 C   0  0  0  0  0  0  0  0  0  0  0  0
   -4.7724   -3.0101    0.0000 C   0  0  0  0  0  0  0  0  0  0  0  0
   -5.2558   -1.5901    0.0000 C   0  0  0  0  0  0  0  0  0  0  0  0
   -4.2678   -0.4615    0.0000 C   0  0  0  0  0  0  0  0  0  0  0  0
   -2.7963   -0.7528    0.0000 C   0  0  0  0  0  0  0  0  0  0  0  0
    1.6179   -1.6269    0.0000 O   0  0  0  0  0  0  0  0  0  0  0  0
    2.1013   -3.0469    0.0000 C   0  0  0  0  0  0  0  0  0  0  0  0
    1.1133   -4.1755    0.0000 C   0  0  0  0  0  0  0  0  0  0  0  0
    1.5967   -5.5955    0.0000 C   0  0  0  0  0  0  0  0  0  0  0  0
    3.0681   -5.8869    0.0000 C   0  0  0  0  0  0  0  0  0  0  0  0
    4.0561   -4.7582    0.0000 C   0  0  0  0  0  0  0  0  0  0  0  0
    3.5728   -3.3383    0.0000 C   0  0  0  0  0  0  0  0  0  0  0  0
  1  2  1  0
  2  3  1  0
  3  4  1  0
  4  5  1  0
  5  6  1  0
  6  7  2  0
  7  8  1  0
  8  9  2  0
  9 10  1  0
 10 11  2  0
  4 12  1  0
 12 13  1  0
 13 14  2  0
 14 15  1  0
 15 16  2  0
 16 17  1  0
 17 18  2  0
  3 19  1  0
 19 20  1  0
 20 21  1  0
 21 22  2  0
 22 23  1  0
 23 24  2  0
 24 25  1  0
 25 26  2  0
 19 27  1  0
 27 28  1  0
 28 29  2  0
 29 30  1  0
 30 31  2  0
 31 32  1  0
 32 33  2  0
 11  6  1  0
 18 13  1  0
 26 21  1  0
 33 28  1  0
M  END
>  <linear_selectivity>  (990) 
89

>  <denticity>  (990) 
2

>  <ligand_class>  (990) 
diphosphite

$$$$
diphosphite-C3_70C_benzene
     RDKit          2D

 33 36  0  0  0  0  0  0  0  0999 V2000
   -2.4629   -0.0791    0.0000 C   0  0  0  0  0  0  0  0  0  0  0  0
   -1.8083    0.3758    0.0000 C   0  0  0  0  0  0  0  0  0  0  0  0
   -0.3369    0.0844    0.0000 C   0  0  0  0  0  0  0  0  0  0  0  0
    0.6512    1.2130    0.0000 P   0  0  0  0  0  0  0  0  0  0  0  0
    2.1226    0.9217    0.0000 O   0  0  0  0  0  0  0  0  0  0  0  0
    3.1106    2.0503    0.0000 C   0  0  0  0  0  0  0  0  0  0  0  0
    4.5821    1.7589    0.0000 C   0  0  0  0  0  0  0  0  0  0  0  0
    5.5701    2.8875    0.0000 C   0  0  0  0  0  0  0  0  0  0  0  0
    5.0867    4.3075    0.0000 C   0  0  0  0  0  0  0  0  0  0  0  0
    3.6153    4.5989    0.0000 C   0  0  0  0  0  0  0  0  0  0  0  0
    2.6273    3.4703    0.0000 C   0  0  0  0  0  0  0  0  0  0  0  0
    0.1678    2.6330    0.0000 O   0  0  0  0  0  0  0  0  0  0  0  0
   -1.3036    2.9244    0.0000 C   0  0  0  0  0  0  0  0  0  0  0  0
   -1.7870    4.3444    0.0000 C   0  0  0  0  0  0  0  0  0  0  0  0
   -3.2585    4.6357    0.0000 C   0  0  0  0  0  0  0  0  0  0  0  0
   -4.2465    3.5071    0.0000 C   0  0  0  0  0  0  0  0  0  0  0  0
   -3.7631    2.0871    0.0000 C   0  0  0  0  0  0  0  0  0  0  0  0
   -2.2917    1.7958    0.0000 C   0  0  0  0  0  0  0  0  0  0  0  0
    0.1465   -1.3356    0.0000 P   0  0  0  0  0  0  0  0  0  0  0  0
   -0.8415   -2.4642    0.0000 O   0  0  0  0  0  0  0  0  0  0  0  0
   -2.3130   -2.1728    0.0000 C   0  0  0  0  0  0  0  0  0  0  0  0
   -3.3010   -3.3014    0.0000 C   0  0  0  0  0  0  0  0  0  0  0  0
   -4.7724   -3.0101    0.0000 C   0  0  0  0  0  0  0  0  0  0  0  0
   -5.2558   -1.5901    0.0000 C   0  0  0  0  0  0  0  0  0  0  0  0
   -4.2678   -0.4615    0.0000 C   0  0  0  0  0  0  0  0  0  0  0  0
   -2.7963   -0.7528    0.0000 C   0  0  0  0  0  0  0  0  0  0  0  0
    1.6179   -1.6269    0.0000 O   0  0  0  0  0  0  0  0  0  0  0  0
    2.1013   -3.0469    0.0000 C   0  0  0  0  0  0  0  0  0  0  0  0
    1.1133   -4.1755    0.0000 C   0  0  0  0  0  0  0  0  0  0  0  0
    1.5967   -5.5955    0.0000 C   0  0  0  0  0  0  0  0  0  0  0  0
    3.0681   -5.8869    0.0000 C   0  0  0  0  0  0  0  0  0  0  0  0
    4.0561   -4.7582    0.0000 C   0  0  0  0  0  0  0  0  0  0  0  0
    3.5728   -3.3383    0.0000 C   0  0  0  0  0  0  0  0  0  0  0  0
  1  2  1  0
  2  3  1  0
  3  4  1  0
  4  5  1  0
  5  6  1  0
  6  7  2  0
  7  8  1  0
  8  9  2  0
  9 10  1  0
 10 11  2  0
  4 12  1  0
 12 13  1  0
 13 14  2  0
 14 15  1  0
 15 16  2  0
 16 17  1  0
 17 18  2  0
  3 19  1  0
 19 20  1  0
 20 21  1  0
 21 22  2  0
 22 23  1  0
 23 24  2  0
 24 25  1  0
 25 26  2  0
 19 27  1  0
 27 28  1  0
 28 29  2  0
 29 30  1  0
 30 31  2  0
 31 32  1  0
 32 33  2  0
 11  6  1  0
 18 13  1  0
 26 21  1  0
 33 28  1  0
M  END
>  <linear_selectivity>  (991) 
94

>  <denticity>  (991) 
2

>  <ligand_class>  (991) 
diphosphite

$$$$
diphosphite-C3_70C_xylene
     RDKit          2D

 33 36  0  0  0  0  0  0  0  0999 V2000
   -2.4629   -0.0791    0.0000 C   0  0  0  0  0  0  0  0  0  0  0  0
   -1.8083    0.3758    0.0000 C   0  0  0  0  0  0  0  0  0  0  0  0
   -0.3369    0.0844    0.0000 C   0  0  0  0  0  0  0  0  0  0  0  0
    0.6512    1.2130    0.0000 P   0  0  0  0  0  0  0  0  0  0  0  0
    2.1226    0.9217    0.0000 O   0  0  0  0  0  0  0  0  0  0  0  0
    3.1106    2.0503    0.0000 C   0  0  0  0  0  0  0  0  0  0  0  0
    4.5821    1.7589    0.0000 C   0  0  0  0  0  0  0  0  0  0  0  0
    5.5701    2.8875    0.0000 C   0  0  0  0  0  0  0  0  0  0  0  0
    5.0867    4.3075    0.0000 C   0  0  0  0  0  0  0  0  0  0  0  0
    3.6153    4.5989    0.0000 C   0  0  0  0  0  0  0  0  0  0  0  0
    2.6273    3.4703    0.0000 C   0  0  0  0  0  0  0  0  0  0  0  0
    0.1678    2.6330    0.0000 O   0  0  0  0  0  0  0  0  0  0  0  0
   -1.3036    2.9244    0.0000 C   0  0  0  0  0  0  0  0  0  0  0  0
   -1.7870    4.3444    0.0000 C   0  0  0  0  0  0  0  0  0  0  0  0
   -3.2585    4.6357    0.0000 C   0  0  0  0  0  0  0  0  0  0  0  0
   -4.2465    3.5071    0.0000 C   0  0  0  0  0  0  0  0  0  0  0  0
   -3.7631    2.0871    0.0000 C   0  0  0  0  0  0  0  0  0  0  0  0
   -2.2917    1.7958    0.0000 C   0  0  0  0  0  0  0  0  0  0  0  0
    0.1465   -1.3356    0.0000 P   0  0  0  0  0  0  0  0  0  0  0  0
   -0.8415   -2.4642    0.0000 O   0  0  0  0  0  0  0  0  0  0  0  0
   -2.3130   -2.1728    0.0000 C   0  0  0  0  0  0  0  0  0  0  0  0
   -3.3010   -3.3014    0.0000 C   0  0  0  0  0  0  0  0  0  0  0  0
   -4.7724   -3.0101    0.0000 C   0  0  0  0  0  0  0  0  0  0  0  0
   -5.2558   -1.5901    0.0000 C   0  0  0  0  0  0  0  0  0  0  0  0
   -4.2678   -0.4615    0.0000 C   0  0  0  0  0  0  0  0  0  0  0  0
   -2.7963   -0.7528    0.0000 C   0  0  0  0  0  0  0  0  0  0  0  0
    1.6179   -1.6269    0.0000 O   0  0  0  0  0  0  0  0  0  0  0  0
    2.1013   -3.0469    0.0000 C   0  0  0  0  0  0  0  0  0  0  0  0
    1.1133   -4.1755    0.0000 C   0  0  0  0  0  0  0  0  0  0  0  0
    1.5967   -5.5955    0.0000 C   0  0  0  0  0  0  0  0  0  0  0  0
    3.0681   -5.8869    0.0000 C   0  0  0  0  0  0  0  0  0  0  0  0
    4.0561   -4.7582    0.0000 C   0  0  0  0  0  0  0  0  0  0  0  0
    3.5728   -3.3383    0.0000 C   0  0  0  0  0  0  0  0  0  0  0  0
  1  2  1  0
  2  3  1  0
  3  4  1  0
  4  5  1  0
  5  6  1  0
  6  7  2  0
  7  8  1  0
  8  9  2  0
  9 10  1  0
 10 11  2  0
  4 12  1  0
 12 13  1  0
 13 14  2  0
 14 15  1  0
 15 16  2  0
 16 17  1  0
 17 18  2  0
  3 19  1  0
 19 20  1  0
 20 21  1  0
 21 22  2  0
 22 23  1  0
 23 24  2  0
 24 25  1  0
 25 26  2  0
 19 27  1  0
 27 28  1  0
 28 29  2  0
 29 30  1  0
 30 31  2  0
 31 32  1  0
 32 33  2  0
 11  6  1  0
 18 13  1  0
 26 21  1  0
 33 28  1  0
M  END
>  <linear_selectivity>  (992) 
94

>  <denticity>  (992) 
2

>  <ligand_class>  (992) 
diphosphite

$$$$
diphosphite-C3_80C_toluene
     RDKit          2D

 33 36  0  0  0  0  0  0  0  0999 V2000
   -2.4629   -0.0791    0.0000 C   0  0  0  0  0  0  0  0  0  0  0  0
   -1.8083    0.3758    0.0000 C   0  0  0  0  0  0  0  0  0  0  0  0
   -0.3369    0.0844    0.0000 C   0  0  0  0  0  0  0  0  0  0  0  0
    0.6512    1.2130    0.0000 P   0  0  0  0  0  0  0  0  0  0  0  0
    2.1226    0.9217    0.0000 O   0  0  0  0  0  0  0  0  0  0  0  0
    3.1106    2.0503    0.0000 C   0  0  0  0  0  0  0  0  0  0  0  0
    4.5821    1.7589    0.0000 C   0  0  0  0  0  0  0  0  0  0  0  0
    5.5701    2.8875    0.0000 C   0  0  0  0  0  0  0  0  0  0  0  0
    5.0867    4.3075    0.0000 C   0  0  0  0  0  0  0  0  0  0  0  0
    3.6153    4.5989    0.0000 C   0  0  0  0  0  0  0  0  0  0  0  0
    2.6273    3.4703    0.0000 C   0  0  0  0  0  0  0  0  0  0  0  0
    0.1678    2.6330    0.0000 O   0  0  0  0  0  0  0  0  0  0  0  0
   -1.3036    2.9244    0.0000 C   0  0  0  0  0  0  0  0  0  0  0  0
   -1.7870    4.3444    0.0000 C   0  0  0  0  0  0  0  0  0  0  0  0
   -3.2585    4.6357    0.0000 C   0  0  0  0  0  0  0  0  0  0  0  0
   -4.2465    3.5071    0.0000 C   0  0  0  0  0  0  0  0  0  0  0  0
   -3.7631    2.0871    0.0000 C   0  0  0  0  0  0  0  0  0  0  0  0
   -2.2917    1.7958    0.0000 C   0  0  0  0  0  0  0  0  0  0  0  0
    0.1465   -1.3356    0.0000 P   0  0  0  0  0  0  0  0  0  0  0  0
   -0.8415   -2.4642    0.0000 O   0  0  0  0  0  0  0  0  0  0  0  0
   -2.3130   -2.1728    0.0000 C   0  0  0  0  0  0  0  0  0  0  0  0
   -3.3010   -3.3014    0.0000 C   0  0  0  0  0  0  0  0  0  0  0  0
   -4.7724   -3.0101    0.0000 C   0  0  0  0  0  0  0  0  0  0  0  0
   -5.2558   -1.5901    0.0000 C   0  0  0  0  0  0  0  0  0  0  0  0
   -4.2678   -0.4615    0.0000 C   0  0  0  0  0  0  0  0  0  0  0  0
   -2.7963   -0.7528    0.0000 C   0  0  0  0  0  0  0  0  0  0  0  0
    1.6179   -1.6269    0.0000 O   0  0  0  0  0  0  0  0  0  0  0  0
    2.1013   -3.0469    0.0000 C   0  0  0  0  0  0  0  0  0  0  0  0
    1.1133   -4.1755    0.0000 C   0  0  0  0  0  0  0  0  0  0  0  0
    1.5967   -5.5955    0.0000 C   0  0  0  0  0  0  0  0  0  0  0  0
    3.0681   -5.8869    0.0000 C   0  0  0  0  0  0  0  0  0  0  0  0
    4.0561   -4.7582    0.0000 C   0  0  0  0  0  0  0  0  0  0  0  0
    3.5728   -3.3383    0.0000 C   0  0  0  0  0  0  0  0  0  0  0  0
  1  2  1  0
  2  3  1  0
  3  4  1  0
  4  5  1  0
  5  6  1  0
  6  7  2  0
  7  8  1  0
  8  9  2  0
  9 10  1  0
 10 11  2  0
  4 12  1  0
 12 13  1  0
 13 14  2  0
 14 15  1  0
 15 16  2  0
 16 17  1  0
 17 18  2  0
  3 19  1  0
 19 20  1  0
 20 21  1  0
 21 22  2  0
 22 23  1  0
 23 24  2  0
 24 25  1  0
 25 26  2  0
 19 27  1  0
 27 28  1  0
 28 29  2  0
 29 30  1  0
 30 31  2  0
 31 32  1  0
 32 33  2  0
 11  6  1  0
 18 13  1  0
 26 21  1  0
 33 28  1  0
M  END
>  <linear_selectivity>  (993) 
88

>  <denticity>  (993) 
2

>  <ligand_class>  (993) 
diphosphite

$$$$
diphosphite-C3_80C_THF
     RDKit          2D

 33 36  0  0  0  0  0  0  0  0999 V2000
   -2.4629   -0.0791    0.0000 C   0  0  0  0  0  0  0  0  0  0  0  0
   -1.8083    0.3758    0.0000 C   0  0  0  0  0  0  0  0  0  0  0  0
   -0.3369    0.0844    0.0000 C   0  0  0  0  0  0  0  0  0  0  0  0
    0.6512    1.2130    0.0000 P   0  0  0  0  0  0  0  0  0  0  0  0
    2.1226    0.9217    0.0000 O   0  0  0  0  0  0  0  0  0  0  0  0
    3.1106    2.0503    0.0000 C   0  0  0  0  0  0  0  0  0  0  0  0
    4.5821    1.7589    0.0000 C   0  0  0  0  0  0  0  0  0  0  0  0
    5.5701    2.8875    0.0000 C   0  0  0  0  0  0  0  0  0  0  0  0
    5.0867    4.3075    0.0000 C   0  0  0  0  0  0  0  0  0  0  0  0
    3.6153    4.5989    0.0000 C   0  0  0  0  0  0  0  0  0  0  0  0
    2.6273    3.4703    0.0000 C   0  0  0  0  0  0  0  0  0  0  0  0
    0.1678    2.6330    0.0000 O   0  0  0  0  0  0  0  0  0  0  0  0
   -1.3036    2.9244    0.0000 C   0  0  0  0  0  0  0  0  0  0  0  0
   -1.7870    4.3444    0.0000 C   0  0  0  0  0  0  0  0  0  0  0  0
   -3.2585    4.6357    0.0000 C   0  0  0  0  0  0  0  0  0  0  0  0
   -4.2465    3.5071    0.0000 C   0  0  0  0  0  0  0  0  0  0  0  0
   -3.7631    2.0871    0.0000 C   0  0  0  0  0  0  0  0  0  0  0  0
   -2.2917    1.7958    0.0000 C   0  0  0  0  0  0  0  0  0  0  0  0
    0.1465   -1.3356    0.0000 P   0  0  0  0  0  0  0  0  0  0  0  0
   -0.8415   -2.4642    0.0000 O   0  0  0  0  0  0  0  0  0  0  0  0
   -2.3130   -2.1728    0.0000 C   0  0  0  0  0  0  0  0  0  0  0  0
   -3.3010   -3.3014    0.0000 C   0  0  0  0  0  0  0  0  0  0  0  0
   -4.7724   -3.0101    0.0000 C   0  0  0  0  0  0  0  0  0  0  0  0
   -5.2558   -1.5901    0.0000 C   0  0  0  0  0  0  0  0  0  0  0  0
   -4.2678   -0.4615    0.0000 C   0  0  0  0  0  0  0  0  0  0  0  0
   -2.7963   -0.7528    0.0000 C   0  0  0  0  0  0  0  0  0  0  0  0
    1.6179   -1.6269    0.0000 O   0  0  0  0  0  0  0  0  0  0  0  0
    2.1013   -3.0469    0.0000 C   0  0  0  0  0  0  0  0  0  0  0  0
    1.1133   -4.1755    0.0000 C   0  0  0  0  0  0  0  0  0  0  0  0
    1.5967   -5.5955    0.0000 C   0  0  0  0  0  0  0  0  0  0  0  0
    3.0681   -5.8869    0.0000 C   0  0  0  0  0  0  0  0  0  0  0  0
    4.0561   -4.7582    0.0000 C   0  0  0  0  0  0  0  0  0  0  0  0
    3.5728   -3.3383    0.0000 C   0  0  0  0  0  0  0  0  0  0  0  0
  1  2  1  0
  2  3  1  0
  3  4  1  0
  4  5  1  0
  5  6  1  0
  6  7  2  0
  7  8  1  0
  8  9  2  0
  9 10  1  0
 10 11  2  0
  4 12  1  0
 12 13  1  0
 13 14  2  0
 14 15  1  0
 15 16  2  0
 16 17  1  0
 17 18  2  0
  3 19  1  0
 19 20  1  0
 20 21  1  0
 21 22  2  0
 22 23  1  0
 23 24  2  0
 24 25  1  0
 25 26  2  0
 19 27  1  0
 27 28  1  0
 28 29  2  0
 29 30  1  0
 30 31  2  0
 31 32  1  0
 32 33  2  0
 11  6  1  0
 18 13  1  0
 26 21  1  0
 33 28  1  0
M  END
>  <linear_selectivity>  (994) 
85

>  <denticity>  (994) 
2

>  <ligand_class>  (994) 
diphosphite

$$$$
diphosphite-C3_80C_dioxane
     RDKit          2D

 33 36  0  0  0  0  0  0  0  0999 V2000
   -2.4629   -0.0791    0.0000 C   0  0  0  0  0  0  0  0  0  0  0  0
   -1.8083    0.3758    0.0000 C   0  0  0  0  0  0  0  0  0  0  0  0
   -0.3369    0.0844    0.0000 C   0  0  0  0  0  0  0  0  0  0  0  0
    0.6512    1.2130    0.0000 P   0  0  0  0  0  0  0  0  0  0  0  0
    2.1226    0.9217    0.0000 O   0  0  0  0  0  0  0  0  0  0  0  0
    3.1106    2.0503    0.0000 C   0  0  0  0  0  0  0  0  0  0  0  0
    4.5821    1.7589    0.0000 C   0  0  0  0  0  0  0  0  0  0  0  0
    5.5701    2.8875    0.0000 C   0  0  0  0  0  0  0  0  0  0  0  0
    5.0867    4.3075    0.0000 C   0  0  0  0  0  0  0  0  0  0  0  0
    3.6153    4.5989    0.0000 C   0  0  0  0  0  0  0  0  0  0  0  0
    2.6273    3.4703    0.0000 C   0  0  0  0  0  0  0  0  0  0  0  0
    0.1678    2.6330    0.0000 O   0  0  0  0  0  0  0  0  0  0  0  0
   -1.3036    2.9244    0.0000 C   0  0  0  0  0  0  0  0  0  0  0  0
   -1.7870    4.3444    0.0000 C   0  0  0  0  0  0  0  0  0  0  0  0
   -3.2585    4.6357    0.0000 C   0  0  0  0  0  0  0  0  0  0  0  0
   -4.2465    3.5071    0.0000 C   0  0  0  0  0  0  0  0  0  0  0  0
   -3.7631    2.0871    0.0000 C   0  0  0  0  0  0  0  0  0  0  0  0
   -2.2917    1.7958    0.0000 C   0  0  0  0  0  0  0  0  0  0  0  0
    0.1465   -1.3356    0.0000 P   0  0  0  0  0  0  0  0  0  0  0  0
   -0.8415   -2.4642    0.0000 O   0  0  0  0  0  0  0  0  0  0  0  0
   -2.3130   -2.1728    0.0000 C   0  0  0  0  0  0  0  0  0  0  0  0
   -3.3010   -3.3014    0.0000 C   0  0  0  0  0  0  0  0  0  0  0  0
   -4.7724   -3.0101    0.0000 C   0  0  0  0  0  0  0  0  0  0  0  0
   -5.2558   -1.5901    0.0000 C   0  0  0  0  0  0  0  0  0  0  0  0
   -4.2678   -0.4615    0.0000 C   0  0  0  0  0  0  0  0  0  0  0  0
   -2.7963   -0.7528    0.0000 C   0  0  0  0  0  0  0  0  0  0  0  0
    1.6179   -1.6269    0.0000 O   0  0  0  0  0  0  0  0  0  0  0  0
    2.1013   -3.0469    0.0000 C   0  0  0  0  0  0  0  0  0  0  0  0
    1.1133   -4.1755    0.0000 C   0  0  0  0  0  0  0  0  0  0  0  0
    1.5967   -5.5955    0.0000 C   0  0  0  0  0  0  0  0  0  0  0  0
    3.0681   -5.8869    0.0000 C   0  0  0  0  0  0  0  0  0  0  0  0
    4.0561   -4.7582    0.0000 C   0  0  0  0  0  0  0  0  0  0  0  0
    3.5728   -3.3383    0.0000 C   0  0  0  0  0  0  0  0  0  0  0  0
  1  2  1  0
  2  3  1  0
  3  4  1  0
  4  5  1  0
  5  6  1  0
  6  7  2  0
  7  8  1  0
  8  9  2  0
  9 10  1  0
 10 11  2  0
  4 12  1  0
 12 13  1  0
 13 14  2  0
 14 15  1  0
 15 16  2  0
 16 17  1  0
 17 18  2  0
  3 19  1  0
 19 20  1  0
 20 21  1  0
 21 22  2  0
 22 23  1  0
 23 24  2  0
 24 25  1  0
 25 26  2  0
 19 27  1  0
 27 28  1  0
 28 29  2  0
 29 30  1  0
 30 31  2  0
 31 32  1  0
 32 33  2  0
 11  6  1  0
 18 13  1  0
 26 21  1  0
 33 28  1  0
M  END
>  <linear_selectivity>  (995) 
89

>  <denticity>  (995) 
2

>  <ligand_class>  (995) 
diphosphite

$$$$
diphosphite-C3_80C_hexane
     RDKit          2D

 33 36  0  0  0  0  0  0  0  0999 V2000
   -2.4629   -0.0791    0.0000 C   0  0  0  0  0  0  0  0  0  0  0  0
   -1.8083    0.3758    0.0000 C   0  0  0  0  0  0  0  0  0  0  0  0
   -0.3369    0.0844    0.0000 C   0  0  0  0  0  0  0  0  0  0  0  0
    0.6512    1.2130    0.0000 P   0  0  0  0  0  0  0  0  0  0  0  0
    2.1226    0.9217    0.0000 O   0  0  0  0  0  0  0  0  0  0  0  0
    3.1106    2.0503    0.0000 C   0  0  0  0  0  0  0  0  0  0  0  0
    4.5821    1.7589    0.0000 C   0  0  0  0  0  0  0  0  0  0  0  0
    5.5701    2.8875    0.0000 C   0  0  0  0  0  0  0  0  0  0  0  0
    5.0867    4.3075    0.0000 C   0  0  0  0  0  0  0  0  0  0  0  0
    3.6153    4.5989    0.0000 C   0  0  0  0  0  0  0  0  0  0  0  0
    2.6273    3.4703    0.0000 C   0  0  0  0  0  0  0  0  0  0  0  0
    0.1678    2.6330    0.0000 O   0  0  0  0  0  0  0  0  0  0  0  0
   -1.3036    2.9244    0.0000 C   0  0  0  0  0  0  0  0  0  0  0  0
   -1.7870    4.3444    0.0000 C   0  0  0  0  0  0  0  0  0  0  0  0
   -3.2585    4.6357    0.0000 C   0  0  0  0  0  0  0  0  0  0  0  0
   -4.2465    3.5071    0.0000 C   0  0  0  0  0  0  0  0  0  0  0  0
   -3.7631    2.0871    0.0000 C   0  0  0  0  0  0  0  0  0  0  0  0
   -2.2917    1.7958    0.0000 C   0  0  0  0  0  0  0  0  0  0  0  0
    0.1465   -1.3356    0.0000 P   0  0  0  0  0  0  0  0  0  0  0  0
   -0.8415   -2.4642    0.0000 O   0  0  0  0  0  0  0  0  0  0  0  0
   -2.3130   -2.1728    0.0000 C   0  0  0  0  0  0  0  0  0  0  0  0
   -3.3010   -3.3014    0.0000 C   0  0  0  0  0  0  0  0  0  0  0  0
   -4.7724   -3.0101    0.0000 C   0  0  0  0  0  0  0  0  0  0  0  0
   -5.2558   -1.5901    0.0000 C   0  0  0  0  0  0  0  0  0  0  0  0
   -4.2678   -0.4615    0.0000 C   0  0  0  0  0  0  0  0  0  0  0  0
   -2.7963   -0.7528    0.0000 C   0  0  0  0  0  0  0  0  0  0  0  0
    1.6179   -1.6269    0.0000 O   0  0  0  0  0  0  0  0  0  0  0  0
    2.1013   -3.0469    0.0000 C   0  0  0  0  0  0  0  0  0  0  0  0
    1.1133   -4.1755    0.0000 C   0  0  0  0  0  0  0  0  0  0  0  0
    1.5967   -5.5955    0.0000 C   0  0  0  0  0  0  0  0  0  0  0  0
    3.0681   -5.8869    0.0000 C   0  0  0  0  0  0  0  0  0  0  0  0
    4.0561   -4.7582    0.0000 C   0  0  0  0  0  0  0  0  0  0  0  0
    3.5728   -3.3383    0.0000 C   0  0  0  0  0  0  0  0  0  0  0  0
  1  2  1  0
  2  3  1  0
  3  4  1  0
  4  5  1  0
  5  6  1  0
  6  7  2  0
  7  8  1  0
  8  9  2  0
  9 10  1  0
 10 11  2  0
  4 12  1  0
 12 13  1  0
 13 14  2  0
 14 15  1  0
 15 16  2  0
 16 17  1  0
 17 18  2  0
  3 19  1  0
 19 20  1  0
 20 21  1  0
 21 22  2  0
 22 23  1  0
 23 24  2  0
 24 25  1  0
 25 26  2  0
 19 27  1  0
 27 28  1  0
 28 29  2  0
 29 30  1  0
 30 31  2  0
 31 32  1  0
 32 33  2  0
 11  6  1  0
 18 13  1  0
 26 21  1  0
 33 28  1  0
M  END
>  <linear_selectivity>  (996) 
97

>  <denticity>  (996) 
2

>  <ligand_class>  (996) 
diphosphite

$$$$
diphosphite-C3_80C_benzene
     RDKit          2D

 33 36  0  0  0  0  0  0  0  0999 V2000
   -2.4629   -0.0791    0.0000 C   0  0  0  0  0  0  0  0  0  0  0  0
   -1.8083    0.3758    0.0000 C   0  0  0  0  0  0  0  0  0  0  0  0
   -0.3369    0.0844    0.0000 C   0  0  0  0  0  0  0  0  0  0  0  0
    0.6512    1.2130    0.0000 P   0  0  0  0  0  0  0  0  0  0  0  0
    2.1226    0.9217    0.0000 O   0  0  0  0  0  0  0  0  0  0  0  0
    3.1106    2.0503    0.0000 C   0  0  0  0  0  0  0  0  0  0  0  0
    4.5821    1.7589    0.0000 C   0  0  0  0  0  0  0  0  0  0  0  0
    5.5701    2.8875    0.0000 C   0  0  0  0  0  0  0  0  0  0  0  0
    5.0867    4.3075    0.0000 C   0  0  0  0  0  0  0  0  0  0  0  0
    3.6153    4.5989    0.0000 C   0  0  0  0  0  0  0  0  0  0  0  0
    2.6273    3.4703    0.0000 C   0  0  0  0  0  0  0  0  0  0  0  0
    0.1678    2.6330    0.0000 O   0  0  0  0  0  0  0  0  0  0  0  0
   -1.3036    2.9244    0.0000 C   0  0  0  0  0  0  0  0  0  0  0  0
   -1.7870    4.3444    0.0000 C   0  0  0  0  0  0  0  0  0  0  0  0
   -3.2585    4.6357    0.0000 C   0  0  0  0  0  0  0  0  0  0  0  0
   -4.2465    3.5071    0.0000 C   0  0  0  0  0  0  0  0  0  0  0  0
   -3.7631    2.0871    0.0000 C   0  0  0  0  0  0  0  0  0  0  0  0
   -2.2917    1.7958    0.0000 C   0  0  0  0  0  0  0  0  0  0  0  0
    0.1465   -1.3356    0.0000 P   0  0  0  0  0  0  0  0  0  0  0  0
   -0.8415   -2.4642    0.0000 O   0  0  0  0  0  0  0  0  0  0  0  0
   -2.3130   -2.1728    0.0000 C   0  0  0  0  0  0  0  0  0  0  0  0
   -3.3010   -3.3014    0.0000 C   0  0  0  0  0  0  0  0  0  0  0  0
   -4.7724   -3.0101    0.0000 C   0  0  0  0  0  0  0  0  0  0  0  0
   -5.2558   -1.5901    0.0000 C   0  0  0  0  0  0  0  0  0  0  0  0
   -4.2678   -0.4615    0.0000 C   0  0  0  0  0  0  0  0  0  0  0  0
   -2.7963   -0.7528    0.0000 C   0  0  0  0  0  0  0  0  0  0  0  0
    1.6179   -1.6269    0.0000 O   0  0  0  0  0  0  0  0  0  0  0  0
    2.1013   -3.0469    0.0000 C   0  0  0  0  0  0  0  0  0  0  0  0
    1.1133   -4.1755    0.0000 C   0  0  0  0  0  0  0  0  0  0  0  0
    1.5967   -5.5955    0.0000 C   0  0  0  0  0  0  0  0  0  0  0  0
    3.0681   -5.8869    0.0000 C   0  0  0  0  0  0  0  0  0  0  0  0
    4.0561   -4.7582    0.0000 C   0  0  0  0  0  0  0  0  0  0  0  0
    3.5728   -3.3383    0.0000 C   0  0  0  0  0  0  0  0  0  0  0  0
  1  2  1  0
  2  3  1  0
  3  4  1  0
  4  5  1  0
  5  6  1  0
  6  7  2  0
  7  8  1  0
  8  9  2  0
  9 10  1  0
 10 11  2  0
  4 12  1  0
 12 13  1  0
 13 14  2  0
 14 15  1  0
 15 16  2  0
 16 17  1  0
 17 18  2  0
  3 19  1  0
 19 20  1  0
 20 21  1  0
 21 22  2  0
 22 23  1  0
 23 24  2  0
 24 25  1  0
 25 26  2  0
 19 27  1  0
 27 28  1  0
 28 29  2  0
 29 30  1  0
 30 31  2  0
 31 32  1  0
 32 33  2  0
 11  6  1  0
 18 13  1  0
 26 21  1  0
 33 28  1  0
M  END
>  <linear_selectivity>  (997) 
88

>  <denticity>  (997) 
2

>  <ligand_class>  (997) 
diphosphite

$$$$
diphosphite-C3_80C_xylene
     RDKit          2D

 33 36  0  0  0  0  0  0  0  0999 V2000
   -2.4629   -0.0791    0.0000 C   0  0  0  0  0  0  0  0  0  0  0  0
   -1.8083    0.3758    0.0000 C   0  0  0  0  0  0  0  0  0  0  0  0
   -0.3369    0.0844    0.0000 C   0  0  0  0  0  0  0  0  0  0  0  0
    0.6512    1.2130    0.0000 P   0  0  0  0  0  0  0  0  0  0  0  0
    2.1226    0.9217    0.0000 O   0  0  0  0  0  0  0  0  0  0  0  0
    3.1106    2.0503    0.0000 C   0  0  0  0  0  0  0  0  0  0  0  0
    4.5821    1.7589    0.0000 C   0  0  0  0  0  0  0  0  0  0  0  0
    5.5701    2.8875    0.0000 C   0  0  0  0  0  0  0  0  0  0  0  0
    5.0867    4.3075    0.0000 C   0  0  0  0  0  0  0  0  0  0  0  0
    3.6153    4.5989    0.0000 C   0  0  0  0  0  0  0  0  0  0  0  0
    2.6273    3.4703    0.0000 C   0  0  0  0  0  0  0  0  0  0  0  0
    0.1678    2.6330    0.0000 O   0  0  0  0  0  0  0  0  0  0  0  0
   -1.3036    2.9244    0.0000 C   0  0  0  0  0  0  0  0  0  0  0  0
   -1.7870    4.3444    0.0000 C   0  0  0  0  0  0  0  0  0  0  0  0
   -3.2585    4.6357    0.0000 C   0  0  0  0  0  0  0  0  0  0  0  0
   -4.2465    3.5071    0.0000 C   0  0  0  0  0  0  0  0  0  0  0  0
   -3.7631    2.0871    0.0000 C   0  0  0  0  0  0  0  0  0  0  0  0
   -2.2917    1.7958    0.0000 C   0  0  0  0  0  0  0  0  0  0  0  0
    0.1465   -1.3356    0.0000 P   0  0  0  0  0  0  0  0  0  0  0  0
   -0.8415   -2.4642    0.0000 O   0  0  0  0  0  0  0  0  0  0  0  0
   -2.3130   -2.1728    0.0000 C   0  0  0  0  0  0  0  0  0  0  0  0
   -3.3010   -3.3014    0.0000 C   0  0  0  0  0  0  0  0  0  0  0  0
   -4.7724   -3.0101    0.0000 C   0  0  0  0  0  0  0  0  0  0  0  0
   -5.2558   -1.5901    0.0000 C   0  0  0  0  0  0  0  0  0  0  0  0
   -4.2678   -0.4615    0.0000 C   0  0  0  0  0  0  0  0  0  0  0  0
   -2.7963   -0.7528    0.0000 C   0  0  0  0  0  0  0  0  0  0  0  0
    1.6179   -1.6269    0.0000 O   0  0  0  0  0  0  0  0  0  0  0  0
    2.1013   -3.0469    0.0000 C   0  0  0  0  0  0  0  0  0  0  0  0
    1.1133   -4.1755    0.0000 C   0  0  0  0  0  0  0  0  0  0  0  0
    1.5967   -5.5955    0.0000 C   0  0  0  0  0  0  0  0  0  0  0  0
    3.0681   -5.8869    0.0000 C   0  0  0  0  0  0  0  0  0  0  0  0
    4.0561   -4.7582    0.0000 C   0  0  0  0  0  0  0  0  0  0  0  0
    3.5728   -3.3383    0.0000 C   0  0  0  0  0  0  0  0  0  0  0  0
  1  2  1  0
  2  3  1  0
  3  4  1  0
  4  5  1  0
  5  6  1  0
  6  7  2  0
  7  8  1  0
  8  9  2  0
  9 10  1  0
 10 11  2  0
  4 12  1  0
 12 13  1  0
 13 14  2  0
 14 15  1  0
 15 16  2  0
 16 17  1  0
 17 18  2  0
  3 19  1  0
 19 20  1  0
 20 21  1  0
 21 22  2  0
 22 23  1  0
 23 24  2  0
 24 25  1  0
 25 26  2  0
 19 27  1  0
 27 28  1  0
 28 29  2  0
 29 30  1  0
 30 31  2  0
 31 32  1  0
 32 33  2  0
 11  6  1  0
 18 13  1  0
 26 21  1  0
 33 28  1  0
M  END
>  <linear_selectivity>  (998) 
89

>  <denticity>  (998) 
2

>  <ligand_class>  (998) 
diphosphite

$$$$
diphosphite-C3_90C_toluene
     RDKit          2D

 33 36  0  0  0  0  0  0  0  0999 V2000
   -2.4629   -0.0791    0.0000 C   0  0  0  0  0  0  0  0  0  0  0  0
   -1.8083    0.3758    0.0000 C   0  0  0  0  0  0  0  0  0  0  0  0
   -0.3369    0.0844    0.0000 C   0  0  0  0  0  0  0  0  0  0  0  0
    0.6512    1.2130    0.0000 P   0  0  0  0  0  0  0  0  0  0  0  0
    2.1226    0.9217    0.0000 O   0  0  0  0  0  0  0  0  0  0  0  0
    3.1106    2.0503    0.0000 C   0  0  0  0  0  0  0  0  0  0  0  0
    4.5821    1.7589    0.0000 C   0  0  0  0  0  0  0  0  0  0  0  0
    5.5701    2.8875    0.0000 C   0  0  0  0  0  0  0  0  0  0  0  0
    5.0867    4.3075    0.0000 C   0  0  0  0  0  0  0  0  0  0  0  0
    3.6153    4.5989    0.0000 C   0  0  0  0  0  0  0  0  0  0  0  0
    2.6273    3.4703    0.0000 C   0  0  0  0  0  0  0  0  0  0  0  0
    0.1678    2.6330    0.0000 O   0  0  0  0  0  0  0  0  0  0  0  0
   -1.3036    2.9244    0.0000 C   0  0  0  0  0  0  0  0  0  0  0  0
   -1.7870    4.3444    0.0000 C   0  0  0  0  0  0  0  0  0  0  0  0
   -3.2585    4.6357    0.0000 C   0  0  0  0  0  0  0  0  0  0  0  0
   -4.2465    3.5071    0.0000 C   0  0  0  0  0  0  0  0  0  0  0  0
   -3.7631    2.0871    0.0000 C   0  0  0  0  0  0  0  0  0  0  0  0
   -2.2917    1.7958    0.0000 C   0  0  0  0  0  0  0  0  0  0  0  0
    0.1465   -1.3356    0.0000 P   0  0  0  0  0  0  0  0  0  0  0  0
   -0.8415   -2.4642    0.0000 O   0  0  0  0  0  0  0  0  0  0  0  0
   -2.3130   -2.1728    0.0000 C   0  0  0  0  0  0  0  0  0  0  0  0
   -3.3010   -3.3014    0.0000 C   0  0  0  0  0  0  0  0  0  0  0  0
   -4.7724   -3.0101    0.0000 C   0  0  0  0  0  0  0  0  0  0  0  0
   -5.2558   -1.5901    0.0000 C   0  0  0  0  0  0  0  0  0  0  0  0
   -4.2678   -0.4615    0.0000 C   0  0  0  0  0  0  0  0  0  0  0  0
   -2.7963   -0.7528    0.0000 C   0  0  0  0  0  0  0  0  0  0  0  0
    1.6179   -1.6269    0.0000 O   0  0  0  0  0  0  0  0  0  0  0  0
    2.1013   -3.0469    0.0000 C   0  0  0  0  0  0  0  0  0  0  0  0
    1.1133   -4.1755    0.0000 C   0  0  0  0  0  0  0  0  0  0  0  0
    1.5967   -5.5955    0.0000 C   0  0  0  0  0  0  0  0  0  0  0  0
    3.0681   -5.8869    0.0000 C   0  0  0  0  0  0  0  0  0  0  0  0
    4.0561   -4.7582    0.0000 C   0  0  0  0  0  0  0  0  0  0  0  0
    3.5728   -3.3383    0.0000 C   0  0  0  0  0  0  0  0  0  0  0  0
  1  2  1  0
  2  3  1  0
  3  4  1  0
  4  5  1  0
  5  6  1  0
  6  7  2  0
  7  8  1  0
  8  9  2  0
  9 10  1  0
 10 11  2  0
  4 12  1  0
 12 13  1  0
 13 14  2  0
 14 15  1  0
 15 16  2  0
 16 17  1  0
 17 18  2  0
  3 19  1  0
 19 20  1  0
 20 21  1  0
 21 22  2  0
 22 23  1  0
 23 24  2  0
 24 25  1  0
 25 26  2  0
 19 27  1  0
 27 28  1  0
 28 29  2  0
 29 30  1  0
 30 31  2  0
 31 32  1  0
 32 33  2  0
 11  6  1  0
 18 13  1  0
 26 21  1  0
 33 28  1  0
M  END
>  <linear_selectivity>  (999) 
85

>  <denticity>  (999) 
2

>  <ligand_class>  (999) 
diphosphite

$$$$
diphosphite-C3_90C_THF
     RDKit          2D

 33 36  0  0  0  0  0  0  0  0999 V2000
   -2.4629   -0.0791    0.0000 C   0  0  0  0  0  0  0  0  0  0  0  0
   -1.8083    0.3758    0.0000 C   0  0  0  0  0  0  0  0  0  0  0  0
   -0.3369    0.0844    0.0000 C   0  0  0  0  0  0  0  0  0  0  0  0
    0.6512    1.2130    0.0000 P   0  0  0  0  0  0  0  0  0  0  0  0
    2.1226    0.9217    0.0000 O   0  0  0  0  0  0  0  0  0  0  0  0
    3.1106    2.0503    0.0000 C   0  0  0  0  0  0  0  0  0  0  0  0
    4.5821    1.7589    0.0000 C   0  0  0  0  0  0  0  0  0  0  0  0
    5.5701    2.8875    0.0000 C   0  0  0  0  0  0  0  0  0  0  0  0
    5.0867    4.3075    0.0000 C   0  0  0  0  0  0  0  0  0  0  0  0
    3.6153    4.5989    0.0000 C   0  0  0  0  0  0  0  0  0  0  0  0
    2.6273    3.4703    0.0000 C   0  0  0  0  0  0  0  0  0  0  0  0
    0.1678    2.6330    0.0000 O   0  0  0  0  0  0  0  0  0  0  0  0
   -1.3036    2.9244    0.0000 C   0  0  0  0  0  0  0  0  0  0  0  0
   -1.7870    4.3444    0.0000 C   0  0  0  0  0  0  0  0  0  0  0  0
   -3.2585    4.6357    0.0000 C   0  0  0  0  0  0  0  0  0  0  0  0
   -4.2465    3.5071    0.0000 C   0  0  0  0  0  0  0  0  0  0  0  0
   -3.7631    2.0871    0.0000 C   0  0  0  0  0  0  0  0  0  0  0  0
   -2.2917    1.7958    0.0000 C   0  0  0  0  0  0  0  0  0  0  0  0
    0.1465   -1.3356    0.0000 P   0  0  0  0  0  0  0  0  0  0  0  0
   -0.8415   -2.4642    0.0000 O   0  0  0  0  0  0  0  0  0  0  0  0
   -2.3130   -2.1728    0.0000 C   0  0  0  0  0  0  0  0  0  0  0  0
   -3.3010   -3.3014    0.0000 C   0  0  0  0  0  0  0  0  0  0  0  0
   -4.7724   -3.0101    0.0000 C   0  0  0  0  0  0  0  0  0  0  0  0
   -5.2558   -1.5901    0.0000 C   0  0  0  0  0  0  0  0  0  0  0  0
   -4.2678   -0.4615    0.0000 C   0  0  0  0  0  0  0  0  0  0  0  0
   -2.7963   -0.7528    0.0000 C   0  0  0  0  0  0  0  0  0  0  0  0
    1.6179   -1.6269    0.0000 O   0  0  0  0  0  0  0  0  0  0  0  0
    2.1013   -3.0469    0.0000 C   0  0  0  0  0  0  0  0  0  0  0  0
    1.1133   -4.1755    0.0000 C   0  0  0  0  0  0  0  0  0  0  0  0
    1.5967   -5.5955    0.0000 C   0  0  0  0  0  0  0  0  0  0  0  0
    3.0681   -5.8869    0.0000 C   0  0  0  0  0  0  0  0  0  0  0  0
    4.0561   -4.7582    0.0000 C   0  0  0  0  0  0  0  0  0  0  0  0
    3.5728   -3.3383    0.0000 C   0  0  0  0  0  0  0  0  0  0  0  0
  1  2  1  0
  2  3  1  0
  3  4  1  0
  4  5  1  0
  5  6  1  0
  6  7  2  0
  7  8  1  0
  8  9  2  0
  9 10  1  0
 10 11  2  0
  4 12  1  0
 12 13  1  0
 13 14  2  0
 14 15  1  0
 15 16  2  0
 16 17  1  0
 17 18  2  0
  3 19  1  0
 19 20  1  0
 20 21  1  0
 21 22  2  0
 22 23  1  0
 23 24  2  0
 24 25  1  0
 25 26  2  0
 19 27  1  0
 27 28  1  0
 28 29  2  0
 29 30  1  0
 30 31  2  0
 31 32  1  0
 32 33  2  0
 11  6  1  0
 18 13  1  0
 26 21  1  0
 33 28  1  0
M  END
>  <linear_selectivity>  (1000) 
78

>  <denticity>  (1000) 
2

>  <ligand_class>  (1000) 
diphosphite

$$$$
diphosphite-C3_90C_hexane
     RDKit          2D

 33 36  0  0  0  0  0  0  0  0999 V2000
   -2.4629   -0.0791    0.0000 C   0  0  0  0  0  0  0  0  0  0  0  0
   -1.8083    0.3758    0.0000 C   0  0  0  0  0  0  0  0  0  0  0  0
   -0.3369    0.0844    0.0000 C   0  0  0  0  0  0  0  0  0  0  0  0
    0.6512    1.2130    0.0000 P   0  0  0  0  0  0  0  0  0  0  0  0
    2.1226    0.9217    0.0000 O   0  0  0  0  0  0  0  0  0  0  0  0
    3.1106    2.0503    0.0000 C   0  0  0  0  0  0  0  0  0  0  0  0
    4.5821    1.7589    0.0000 C   0  0  0  0  0  0  0  0  0  0  0  0
    5.5701    2.8875    0.0000 C   0  0  0  0  0  0  0  0  0  0  0  0
    5.0867    4.3075    0.0000 C   0  0  0  0  0  0  0  0  0  0  0  0
    3.6153    4.5989    0.0000 C   0  0  0  0  0  0  0  0  0  0  0  0
    2.6273    3.4703    0.0000 C   0  0  0  0  0  0  0  0  0  0  0  0
    0.1678    2.6330    0.0000 O   0  0  0  0  0  0  0  0  0  0  0  0
   -1.3036    2.9244    0.0000 C   0  0  0  0  0  0  0  0  0  0  0  0
   -1.7870    4.3444    0.0000 C   0  0  0  0  0  0  0  0  0  0  0  0
   -3.2585    4.6357    0.0000 C   0  0  0  0  0  0  0  0  0  0  0  0
   -4.2465    3.5071    0.0000 C   0  0  0  0  0  0  0  0  0  0  0  0
   -3.7631    2.0871    0.0000 C   0  0  0  0  0  0  0  0  0  0  0  0
   -2.2917    1.7958    0.0000 C   0  0  0  0  0  0  0  0  0  0  0  0
    0.1465   -1.3356    0.0000 P   0  0  0  0  0  0  0  0  0  0  0  0
   -0.8415   -2.4642    0.0000 O   0  0  0  0  0  0  0  0  0  0  0  0
   -2.3130   -2.1728    0.0000 C   0  0  0  0  0  0  0  0  0  0  0  0
   -3.3010   -3.3014    0.0000 C   0  0  0  0  0  0  0  0  0  0  0  0
   -4.7724   -3.0101    0.0000 C   0  0  0  0  0  0  0  0  0  0  0  0
   -5.2558   -1.5901    0.0000 C   0  0  0  0  0  0  0  0  0  0  0  0
   -4.2678   -0.4615    0.0000 C   0  0  0  0  0  0  0  0  0  0  0  0
   -2.7963   -0.7528    0.0000 C   0  0  0  0  0  0  0  0  0  0  0  0
    1.6179   -1.6269    0.0000 O   0  0  0  0  0  0  0  0  0  0  0  0
    2.1013   -3.0469    0.0000 C   0  0  0  0  0  0  0  0  0  0  0  0
    1.1133   -4.1755    0.0000 C   0  0  0  0  0  0  0  0  0  0  0  0
    1.5967   -5.5955    0.0000 C   0  0  0  0  0  0  0  0  0  0  0  0
    3.0681   -5.8869    0.0000 C   0  0  0  0  0  0  0  0  0  0  0  0
    4.0561   -4.7582    0.0000 C   0  0  0  0  0  0  0  0  0  0  0  0
    3.5728   -3.3383    0.0000 C   0  0  0  0  0  0  0  0  0  0  0  0
  1  2  1  0
  2  3  1  0
  3  4  1  0
  4  5  1  0
  5  6  1  0
  6  7  2  0
  7  8  1  0
  8  9  2  0
  9 10  1  0
 10 11  2  0
  4 12  1  0
 12 13  1  0
 13 14  2  0
 14 15  1  0
 15 16  2  0
 16 17  1  0
 17 18  2  0
  3 19  1  0
 19 20  1  0
 20 21  1  0
 21 22  2  0
 22 23  1  0
 23 24  2  0
 24 25  1  0
 25 26  2  0
 19 27  1  0
 27 28  1  0
 28 29  2  0
 29 30  1  0
 30 31  2  0
 31 32  1  0
 32 33  2  0
 11  6  1  0
 18 13  1  0
 26 21  1  0
 33 28  1  0
M  END
>  <linear_selectivity>  (1001) 
88

>  <denticity>  (1001) 
2

>  <ligand_class>  (1001) 
diphosphite

$$$$
diphosphite-C3_90C_benzene
     RDKit          2D

 33 36  0  0  0  0  0  0  0  0999 V2000
   -2.4629   -0.0791    0.0000 C   0  0  0  0  0  0  0  0  0  0  0  0
   -1.8083    0.3758    0.0000 C   0  0  0  0  0  0  0  0  0  0  0  0
   -0.3369    0.0844    0.0000 C   0  0  0  0  0  0  0  0  0  0  0  0
    0.6512    1.2130    0.0000 P   0  0  0  0  0  0  0  0  0  0  0  0
    2.1226    0.9217    0.0000 O   0  0  0  0  0  0  0  0  0  0  0  0
    3.1106    2.0503    0.0000 C   0  0  0  0  0  0  0  0  0  0  0  0
    4.5821    1.7589    0.0000 C   0  0  0  0  0  0  0  0  0  0  0  0
    5.5701    2.8875    0.0000 C   0  0  0  0  0  0  0  0  0  0  0  0
    5.0867    4.3075    0.0000 C   0  0  0  0  0  0  0  0  0  0  0  0
    3.6153    4.5989    0.0000 C   0  0  0  0  0  0  0  0  0  0  0  0
    2.6273    3.4703    0.0000 C   0  0  0  0  0  0  0  0  0  0  0  0
    0.1678    2.6330    0.0000 O   0  0  0  0  0  0  0  0  0  0  0  0
   -1.3036    2.9244    0.0000 C   0  0  0  0  0  0  0  0  0  0  0  0
   -1.7870    4.3444    0.0000 C   0  0  0  0  0  0  0  0  0  0  0  0
   -3.2585    4.6357    0.0000 C   0  0  0  0  0  0  0  0  0  0  0  0
   -4.2465    3.5071    0.0000 C   0  0  0  0  0  0  0  0  0  0  0  0
   -3.7631    2.0871    0.0000 C   0  0  0  0  0  0  0  0  0  0  0  0
   -2.2917    1.7958    0.0000 C   0  0  0  0  0  0  0  0  0  0  0  0
    0.1465   -1.3356    0.0000 P   0  0  0  0  0  0  0  0  0  0  0  0
   -0.8415   -2.4642    0.0000 O   0  0  0  0  0  0  0  0  0  0  0  0
   -2.3130   -2.1728    0.0000 C   0  0  0  0  0  0  0  0  0  0  0  0
   -3.3010   -3.3014    0.0000 C   0  0  0  0  0  0  0  0  0  0  0  0
   -4.7724   -3.0101    0.0000 C   0  0  0  0  0  0  0  0  0  0  0  0
   -5.2558   -1.5901    0.0000 C   0  0  0  0  0  0  0  0  0  0  0  0
   -4.2678   -0.4615    0.0000 C   0  0  0  0  0  0  0  0  0  0  0  0
   -2.7963   -0.7528    0.0000 C   0  0  0  0  0  0  0  0  0  0  0  0
    1.6179   -1.6269    0.0000 O   0  0  0  0  0  0  0  0  0  0  0  0
    2.1013   -3.0469    0.0000 C   0  0  0  0  0  0  0  0  0  0  0  0
    1.1133   -4.1755    0.0000 C   0  0  0  0  0  0  0  0  0  0  0  0
    1.5967   -5.5955    0.0000 C   0  0  0  0  0  0  0  0  0  0  0  0
    3.0681   -5.8869    0.0000 C   0  0  0  0  0  0  0  0  0  0  0  0
    4.0561   -4.7582    0.0000 C   0  0  0  0  0  0  0  0  0  0  0  0
    3.5728   -3.3383    0.0000 C   0  0  0  0  0  0  0  0  0  0  0  0
  1  2  1  0
  2  3  1  0
  3  4  1  0
  4  5  1  0
  5  6  1  0
  6  7  2  0
  7  8  1  0
  8  9  2  0
  9 10  1  0
 10 11  2  0
  4 12  1  0
 12 13  1  0
 13 14  2  0
 14 15  1  0
 15 16  2  0
 16 17  1  0
 17 18  2  0
  3 19  1  0
 19 20  1  0
 20 21  1  0
 21 22  2  0
 22 23  1  0
 23 24  2  0
 24 25  1  0
 25 26  2  0
 19 27  1  0
 27 28  1  0
 28 29  2  0
 29 30  1  0
 30 31  2  0
 31 32  1  0
 32 33  2  0
 11  6  1  0
 18 13  1  0
 26 21  1  0
 33 28  1  0
M  END
>  <linear_selectivity>  (1002) 
86

>  <denticity>  (1002) 
2

>  <ligand_class>  (1002) 
diphosphite

$$$$
diphosphite-C3_90C_xylene
     RDKit          2D

 33 36  0  0  0  0  0  0  0  0999 V2000
   -2.4629   -0.0791    0.0000 C   0  0  0  0  0  0  0  0  0  0  0  0
   -1.8083    0.3758    0.0000 C   0  0  0  0  0  0  0  0  0  0  0  0
   -0.3369    0.0844    0.0000 C   0  0  0  0  0  0  0  0  0  0  0  0
    0.6512    1.2130    0.0000 P   0  0  0  0  0  0  0  0  0  0  0  0
    2.1226    0.9217    0.0000 O   0  0  0  0  0  0  0  0  0  0  0  0
    3.1106    2.0503    0.0000 C   0  0  0  0  0  0  0  0  0  0  0  0
    4.5821    1.7589    0.0000 C   0  0  0  0  0  0  0  0  0  0  0  0
    5.5701    2.8875    0.0000 C   0  0  0  0  0  0  0  0  0  0  0  0
    5.0867    4.3075    0.0000 C   0  0  0  0  0  0  0  0  0  0  0  0
    3.6153    4.5989    0.0000 C   0  0  0  0  0  0  0  0  0  0  0  0
    2.6273    3.4703    0.0000 C   0  0  0  0  0  0  0  0  0  0  0  0
    0.1678    2.6330    0.0000 O   0  0  0  0  0  0  0  0  0  0  0  0
   -1.3036    2.9244    0.0000 C   0  0  0  0  0  0  0  0  0  0  0  0
   -1.7870    4.3444    0.0000 C   0  0  0  0  0  0  0  0  0  0  0  0
   -3.2585    4.6357    0.0000 C   0  0  0  0  0  0  0  0  0  0  0  0
   -4.2465    3.5071    0.0000 C   0  0  0  0  0  0  0  0  0  0  0  0
   -3.7631    2.0871    0.0000 C   0  0  0  0  0  0  0  0  0  0  0  0
   -2.2917    1.7958    0.0000 C   0  0  0  0  0  0  0  0  0  0  0  0
    0.1465   -1.3356    0.0000 P   0  0  0  0  0  0  0  0  0  0  0  0
   -0.8415   -2.4642    0.0000 O   0  0  0  0  0  0  0  0  0  0  0  0
   -2.3130   -2.1728    0.0000 C   0  0  0  0  0  0  0  0  0  0  0  0
   -3.3010   -3.3014    0.0000 C   0  0  0  0  0  0  0  0  0  0  0  0
   -4.7724   -3.0101    0.0000 C   0  0  0  0  0  0  0  0  0  0  0  0
   -5.2558   -1.5901    0.0000 C   0  0  0  0  0  0  0  0  0  0  0  0
   -4.2678   -0.4615    0.0000 C   0  0  0  0  0  0  0  0  0  0  0  0
   -2.7963   -0.7528    0.0000 C   0  0  0  0  0  0  0  0  0  0  0  0
    1.6179   -1.6269    0.0000 O   0  0  0  0  0  0  0  0  0  0  0  0
    2.1013   -3.0469    0.0000 C   0  0  0  0  0  0  0  0  0  0  0  0
    1.1133   -4.1755    0.0000 C   0  0  0  0  0  0  0  0  0  0  0  0
    1.5967   -5.5955    0.0000 C   0  0  0  0  0  0  0  0  0  0  0  0
    3.0681   -5.8869    0.0000 C   0  0  0  0  0  0  0  0  0  0  0  0
    4.0561   -4.7582    0.0000 C   0  0  0  0  0  0  0  0  0  0  0  0
    3.5728   -3.3383    0.0000 C   0  0  0  0  0  0  0  0  0  0  0  0
  1  2  1  0
  2  3  1  0
  3  4  1  0
  4  5  1  0
  5  6  1  0
  6  7  2  0
  7  8  1  0
  8  9  2  0
  9 10  1  0
 10 11  2  0
  4 12  1  0
 12 13  1  0
 13 14  2  0
 14 15  1  0
 15 16  2  0
 16 17  1  0
 17 18  2  0
  3 19  1  0
 19 20  1  0
 20 21  1  0
 21 22  2  0
 22 23  1  0
 23 24  2  0
 24 25  1  0
 25 26  2  0
 19 27  1  0
 27 28  1  0
 28 29  2  0
 29 30  1  0
 30 31  2  0
 31 32  1  0
 32 33  2  0
 11  6  1  0
 18 13  1  0
 26 21  1  0
 33 28  1  0
M  END
>  <linear_selectivity>  (1003) 
92

>  <denticity>  (1003) 
2

>  <ligand_class>  (1003) 
diphosphite

$$$$
diphosphite-C3_100C_toluene
     RDKit          2D

 33 36  0  0  0  0  0  0  0  0999 V2000
   -2.4629   -0.0791    0.0000 C   0  0  0  0  0  0  0  0  0  0  0  0
   -1.8083    0.3758    0.0000 C   0  0  0  0  0  0  0  0  0  0  0  0
   -0.3369    0.0844    0.0000 C   0  0  0  0  0  0  0  0  0  0  0  0
    0.6512    1.2130    0.0000 P   0  0  0  0  0  0  0  0  0  0  0  0
    2.1226    0.9217    0.0000 O   0  0  0  0  0  0  0  0  0  0  0  0
    3.1106    2.0503    0.0000 C   0  0  0  0  0  0  0  0  0  0  0  0
    4.5821    1.7589    0.0000 C   0  0  0  0  0  0  0  0  0  0  0  0
    5.5701    2.8875    0.0000 C   0  0  0  0  0  0  0  0  0  0  0  0
    5.0867    4.3075    0.0000 C   0  0  0  0  0  0  0  0  0  0  0  0
    3.6153    4.5989    0.0000 C   0  0  0  0  0  0  0  0  0  0  0  0
    2.6273    3.4703    0.0000 C   0  0  0  0  0  0  0  0  0  0  0  0
    0.1678    2.6330    0.0000 O   0  0  0  0  0  0  0  0  0  0  0  0
   -1.3036    2.9244    0.0000 C   0  0  0  0  0  0  0  0  0  0  0  0
   -1.7870    4.3444    0.0000 C   0  0  0  0  0  0  0  0  0  0  0  0
   -3.2585    4.6357    0.0000 C   0  0  0  0  0  0  0  0  0  0  0  0
   -4.2465    3.5071    0.0000 C   0  0  0  0  0  0  0  0  0  0  0  0
   -3.7631    2.0871    0.0000 C   0  0  0  0  0  0  0  0  0  0  0  0
   -2.2917    1.7958    0.0000 C   0  0  0  0  0  0  0  0  0  0  0  0
    0.1465   -1.3356    0.0000 P   0  0  0  0  0  0  0  0  0  0  0  0
   -0.8415   -2.4642    0.0000 O   0  0  0  0  0  0  0  0  0  0  0  0
   -2.3130   -2.1728    0.0000 C   0  0  0  0  0  0  0  0  0  0  0  0
   -3.3010   -3.3014    0.0000 C   0  0  0  0  0  0  0  0  0  0  0  0
   -4.7724   -3.0101    0.0000 C   0  0  0  0  0  0  0  0  0  0  0  0
   -5.2558   -1.5901    0.0000 C   0  0  0  0  0  0  0  0  0  0  0  0
   -4.2678   -0.4615    0.0000 C   0  0  0  0  0  0  0  0  0  0  0  0
   -2.7963   -0.7528    0.0000 C   0  0  0  0  0  0  0  0  0  0  0  0
    1.6179   -1.6269    0.0000 O   0  0  0  0  0  0  0  0  0  0  0  0
    2.1013   -3.0469    0.0000 C   0  0  0  0  0  0  0  0  0  0  0  0
    1.1133   -4.1755    0.0000 C   0  0  0  0  0  0  0  0  0  0  0  0
    1.5967   -5.5955    0.0000 C   0  0  0  0  0  0  0  0  0  0  0  0
    3.0681   -5.8869    0.0000 C   0  0  0  0  0  0  0  0  0  0  0  0
    4.0561   -4.7582    0.0000 C   0  0  0  0  0  0  0  0  0  0  0  0
    3.5728   -3.3383    0.0000 C   0  0  0  0  0  0  0  0  0  0  0  0
  1  2  1  0
  2  3  1  0
  3  4  1  0
  4  5  1  0
  5  6  1  0
  6  7  2  0
  7  8  1  0
  8  9  2  0
  9 10  1  0
 10 11  2  0
  4 12  1  0
 12 13  1  0
 13 14  2  0
 14 15  1  0
 15 16  2  0
 16 17  1  0
 17 18  2  0
  3 19  1  0
 19 20  1  0
 20 21  1  0
 21 22  2  0
 22 23  1  0
 23 24  2  0
 24 25  1  0
 25 26  2  0
 19 27  1  0
 27 28  1  0
 28 29  2  0
 29 30  1  0
 30 31  2  0
 31 32  1  0
 32 33  2  0
 11  6  1  0
 18 13  1  0
 26 21  1  0
 33 28  1  0
M  END
>  <linear_selectivity>  (1004) 
82

>  <denticity>  (1004) 
2

>  <ligand_class>  (1004) 
diphosphite

$$$$
diphosphite-C3_100C_THF
     RDKit          2D

 33 36  0  0  0  0  0  0  0  0999 V2000
   -2.4629   -0.0791    0.0000 C   0  0  0  0  0  0  0  0  0  0  0  0
   -1.8083    0.3758    0.0000 C   0  0  0  0  0  0  0  0  0  0  0  0
   -0.3369    0.0844    0.0000 C   0  0  0  0  0  0  0  0  0  0  0  0
    0.6512    1.2130    0.0000 P   0  0  0  0  0  0  0  0  0  0  0  0
    2.1226    0.9217    0.0000 O   0  0  0  0  0  0  0  0  0  0  0  0
    3.1106    2.0503    0.0000 C   0  0  0  0  0  0  0  0  0  0  0  0
    4.5821    1.7589    0.0000 C   0  0  0  0  0  0  0  0  0  0  0  0
    5.5701    2.8875    0.0000 C   0  0  0  0  0  0  0  0  0  0  0  0
    5.0867    4.3075    0.0000 C   0  0  0  0  0  0  0  0  0  0  0  0
    3.6153    4.5989    0.0000 C   0  0  0  0  0  0  0  0  0  0  0  0
    2.6273    3.4703    0.0000 C   0  0  0  0  0  0  0  0  0  0  0  0
    0.1678    2.6330    0.0000 O   0  0  0  0  0  0  0  0  0  0  0  0
   -1.3036    2.9244    0.0000 C   0  0  0  0  0  0  0  0  0  0  0  0
   -1.7870    4.3444    0.0000 C   0  0  0  0  0  0  0  0  0  0  0  0
   -3.2585    4.6357    0.0000 C   0  0  0  0  0  0  0  0  0  0  0  0
   -4.2465    3.5071    0.0000 C   0  0  0  0  0  0  0  0  0  0  0  0
   -3.7631    2.0871    0.0000 C   0  0  0  0  0  0  0  0  0  0  0  0
   -2.2917    1.7958    0.0000 C   0  0  0  0  0  0  0  0  0  0  0  0
    0.1465   -1.3356    0.0000 P   0  0  0  0  0  0  0  0  0  0  0  0
   -0.8415   -2.4642    0.0000 O   0  0  0  0  0  0  0  0  0  0  0  0
   -2.3130   -2.1728    0.0000 C   0  0  0  0  0  0  0  0  0  0  0  0
   -3.3010   -3.3014    0.0000 C   0  0  0  0  0  0  0  0  0  0  0  0
   -4.7724   -3.0101    0.0000 C   0  0  0  0  0  0  0  0  0  0  0  0
   -5.2558   -1.5901    0.0000 C   0  0  0  0  0  0  0  0  0  0  0  0
   -4.2678   -0.4615    0.0000 C   0  0  0  0  0  0  0  0  0  0  0  0
   -2.7963   -0.7528    0.0000 C   0  0  0  0  0  0  0  0  0  0  0  0
    1.6179   -1.6269    0.0000 O   0  0  0  0  0  0  0  0  0  0  0  0
    2.1013   -3.0469    0.0000 C   0  0  0  0  0  0  0  0  0  0  0  0
    1.1133   -4.1755    0.0000 C   0  0  0  0  0  0  0  0  0  0  0  0
    1.5967   -5.5955    0.0000 C   0  0  0  0  0  0  0  0  0  0  0  0
    3.0681   -5.8869    0.0000 C   0  0  0  0  0  0  0  0  0  0  0  0
    4.0561   -4.7582    0.0000 C   0  0  0  0  0  0  0  0  0  0  0  0
    3.5728   -3.3383    0.0000 C   0  0  0  0  0  0  0  0  0  0  0  0
  1  2  1  0
  2  3  1  0
  3  4  1  0
  4  5  1  0
  5  6  1  0
  6  7  2  0
  7  8  1  0
  8  9  2  0
  9 10  1  0
 10 11  2  0
  4 12  1  0
 12 13  1  0
 13 14  2  0
 14 15  1  0
 15 16  2  0
 16 17  1  0
 17 18  2  0
  3 19  1  0
 19 20  1  0
 20 21  1  0
 21 22  2  0
 22 23  1  0
 23 24  2  0
 24 25  1  0
 25 26  2  0
 19 27  1  0
 27 28  1  0
 28 29  2  0
 29 30  1  0
 30 31  2  0
 31 32  1  0
 32 33  2  0
 11  6  1  0
 18 13  1  0
 26 21  1  0
 33 28  1  0
M  END
>  <linear_selectivity>  (1005) 
76

>  <denticity>  (1005) 
2

>  <ligand_class>  (1005) 
diphosphite

$$$$
diphosphite-C3_100C_hexane
     RDKit          2D

 33 36  0  0  0  0  0  0  0  0999 V2000
   -2.4629   -0.0791    0.0000 C   0  0  0  0  0  0  0  0  0  0  0  0
   -1.8083    0.3758    0.0000 C   0  0  0  0  0  0  0  0  0  0  0  0
   -0.3369    0.0844    0.0000 C   0  0  0  0  0  0  0  0  0  0  0  0
    0.6512    1.2130    0.0000 P   0  0  0  0  0  0  0  0  0  0  0  0
    2.1226    0.9217    0.0000 O   0  0  0  0  0  0  0  0  0  0  0  0
    3.1106    2.0503    0.0000 C   0  0  0  0  0  0  0  0  0  0  0  0
    4.5821    1.7589    0.0000 C   0  0  0  0  0  0  0  0  0  0  0  0
    5.5701    2.8875    0.0000 C   0  0  0  0  0  0  0  0  0  0  0  0
    5.0867    4.3075    0.0000 C   0  0  0  0  0  0  0  0  0  0  0  0
    3.6153    4.5989    0.0000 C   0  0  0  0  0  0  0  0  0  0  0  0
    2.6273    3.4703    0.0000 C   0  0  0  0  0  0  0  0  0  0  0  0
    0.1678    2.6330    0.0000 O   0  0  0  0  0  0  0  0  0  0  0  0
   -1.3036    2.9244    0.0000 C   0  0  0  0  0  0  0  0  0  0  0  0
   -1.7870    4.3444    0.0000 C   0  0  0  0  0  0  0  0  0  0  0  0
   -3.2585    4.6357    0.0000 C   0  0  0  0  0  0  0  0  0  0  0  0
   -4.2465    3.5071    0.0000 C   0  0  0  0  0  0  0  0  0  0  0  0
   -3.7631    2.0871    0.0000 C   0  0  0  0  0  0  0  0  0  0  0  0
   -2.2917    1.7958    0.0000 C   0  0  0  0  0  0  0  0  0  0  0  0
    0.1465   -1.3356    0.0000 P   0  0  0  0  0  0  0  0  0  0  0  0
   -0.8415   -2.4642    0.0000 O   0  0  0  0  0  0  0  0  0  0  0  0
   -2.3130   -2.1728    0.0000 C   0  0  0  0  0  0  0  0  0  0  0  0
   -3.3010   -3.3014    0.0000 C   0  0  0  0  0  0  0  0  0  0  0  0
   -4.7724   -3.0101    0.0000 C   0  0  0  0  0  0  0  0  0  0  0  0
   -5.2558   -1.5901    0.0000 C   0  0  0  0  0  0  0  0  0  0  0  0
   -4.2678   -0.4615    0.0000 C   0  0  0  0  0  0  0  0  0  0  0  0
   -2.7963   -0.7528    0.0000 C   0  0  0  0  0  0  0  0  0  0  0  0
    1.6179   -1.6269    0.0000 O   0  0  0  0  0  0  0  0  0  0  0  0
    2.1013   -3.0469    0.0000 C   0  0  0  0  0  0  0  0  0  0  0  0
    1.1133   -4.1755    0.0000 C   0  0  0  0  0  0  0  0  0  0  0  0
    1.5967   -5.5955    0.0000 C   0  0  0  0  0  0  0  0  0  0  0  0
    3.0681   -5.8869    0.0000 C   0  0  0  0  0  0  0  0  0  0  0  0
    4.0561   -4.7582    0.0000 C   0  0  0  0  0  0  0  0  0  0  0  0
    3.5728   -3.3383    0.0000 C   0  0  0  0  0  0  0  0  0  0  0  0
  1  2  1  0
  2  3  1  0
  3  4  1  0
  4  5  1  0
  5  6  1  0
  6  7  2  0
  7  8  1  0
  8  9  2  0
  9 10  1  0
 10 11  2  0
  4 12  1  0
 12 13  1  0
 13 14  2  0
 14 15  1  0
 15 16  2  0
 16 17  1  0
 17 18  2  0
  3 19  1  0
 19 20  1  0
 20 21  1  0
 21 22  2  0
 22 23  1  0
 23 24  2  0
 24 25  1  0
 25 26  2  0
 19 27  1  0
 27 28  1  0
 28 29  2  0
 29 30  1  0
 30 31  2  0
 31 32  1  0
 32 33  2  0
 11  6  1  0
 18 13  1  0
 26 21  1  0
 33 28  1  0
M  END
>  <linear_selectivity>  (1006) 
83

>  <denticity>  (1006) 
2

>  <ligand_class>  (1006) 
diphosphite

$$$$
diphosphite-C3_100C_benzene
     RDKit          2D

 33 36  0  0  0  0  0  0  0  0999 V2000
   -2.4629   -0.0791    0.0000 C   0  0  0  0  0  0  0  0  0  0  0  0
   -1.8083    0.3758    0.0000 C   0  0  0  0  0  0  0  0  0  0  0  0
   -0.3369    0.0844    0.0000 C   0  0  0  0  0  0  0  0  0  0  0  0
    0.6512    1.2130    0.0000 P   0  0  0  0  0  0  0  0  0  0  0  0
    2.1226    0.9217    0.0000 O   0  0  0  0  0  0  0  0  0  0  0  0
    3.1106    2.0503    0.0000 C   0  0  0  0  0  0  0  0  0  0  0  0
    4.5821    1.7589    0.0000 C   0  0  0  0  0  0  0  0  0  0  0  0
    5.5701    2.8875    0.0000 C   0  0  0  0  0  0  0  0  0  0  0  0
    5.0867    4.3075    0.0000 C   0  0  0  0  0  0  0  0  0  0  0  0
    3.6153    4.5989    0.0000 C   0  0  0  0  0  0  0  0  0  0  0  0
    2.6273    3.4703    0.0000 C   0  0  0  0  0  0  0  0  0  0  0  0
    0.1678    2.6330    0.0000 O   0  0  0  0  0  0  0  0  0  0  0  0
   -1.3036    2.9244    0.0000 C   0  0  0  0  0  0  0  0  0  0  0  0
   -1.7870    4.3444    0.0000 C   0  0  0  0  0  0  0  0  0  0  0  0
   -3.2585    4.6357    0.0000 C   0  0  0  0  0  0  0  0  0  0  0  0
   -4.2465    3.5071    0.0000 C   0  0  0  0  0  0  0  0  0  0  0  0
   -3.7631    2.0871    0.0000 C   0  0  0  0  0  0  0  0  0  0  0  0
   -2.2917    1.7958    0.0000 C   0  0  0  0  0  0  0  0  0  0  0  0
    0.1465   -1.3356    0.0000 P   0  0  0  0  0  0  0  0  0  0  0  0
   -0.8415   -2.4642    0.0000 O   0  0  0  0  0  0  0  0  0  0  0  0
   -2.3130   -2.1728    0.0000 C   0  0  0  0  0  0  0  0  0  0  0  0
   -3.3010   -3.3014    0.0000 C   0  0  0  0  0  0  0  0  0  0  0  0
   -4.7724   -3.0101    0.0000 C   0  0  0  0  0  0  0  0  0  0  0  0
   -5.2558   -1.5901    0.0000 C   0  0  0  0  0  0  0  0  0  0  0  0
   -4.2678   -0.4615    0.0000 C   0  0  0  0  0  0  0  0  0  0  0  0
   -2.7963   -0.7528    0.0000 C   0  0  0  0  0  0  0  0  0  0  0  0
    1.6179   -1.6269    0.0000 O   0  0  0  0  0  0  0  0  0  0  0  0
    2.1013   -3.0469    0.0000 C   0  0  0  0  0  0  0  0  0  0  0  0
    1.1133   -4.1755    0.0000 C   0  0  0  0  0  0  0  0  0  0  0  0
    1.5967   -5.5955    0.0000 C   0  0  0  0  0  0  0  0  0  0  0  0
    3.0681   -5.8869    0.0000 C   0  0  0  0  0  0  0  0  0  0  0  0
    4.0561   -4.7582    0.0000 C   0  0  0  0  0  0  0  0  0  0  0  0
    3.5728   -3.3383    0.0000 C   0  0  0  0  0  0  0  0  0  0  0  0
  1  2  1  0
  2  3  1  0
  3  4  1  0
  4  5  1  0
  5  6  1  0
  6  7  2  0
  7  8  1  0
  8  9  2  0
  9 10  1  0
 10 11  2  0
  4 12  1  0
 12 13  1  0
 13 14  2  0
 14 15  1  0
 15 16  2  0
 16 17  1  0
 17 18  2  0
  3 19  1  0
 19 20  1  0
 20 21  1  0
 21 22  2  0
 22 23  1  0
 23 24  2  0
 24 25  1  0
 25 26  2  0
 19 27  1  0
 27 28  1  0
 28 29  2  0
 29 30  1  0
 30 31  2  0
 31 32  1  0
 32 33  2  0
 11  6  1  0
 18 13  1  0
 26 21  1  0
 33 28  1  0
M  END
>  <linear_selectivity>  (1007) 
85

>  <denticity>  (1007) 
2

>  <ligand_class>  (1007) 
diphosphite

$$$$
diphosphite-C3_100C_xylene
     RDKit          2D

 33 36  0  0  0  0  0  0  0  0999 V2000
   -2.4629   -0.0791    0.0000 C   0  0  0  0  0  0  0  0  0  0  0  0
   -1.8083    0.3758    0.0000 C   0  0  0  0  0  0  0  0  0  0  0  0
   -0.3369    0.0844    0.0000 C   0  0  0  0  0  0  0  0  0  0  0  0
    0.6512    1.2130    0.0000 P   0  0  0  0  0  0  0  0  0  0  0  0
    2.1226    0.9217    0.0000 O   0  0  0  0  0  0  0  0  0  0  0  0
    3.1106    2.0503    0.0000 C   0  0  0  0  0  0  0  0  0  0  0  0
    4.5821    1.7589    0.0000 C   0  0  0  0  0  0  0  0  0  0  0  0
    5.5701    2.8875    0.0000 C   0  0  0  0  0  0  0  0  0  0  0  0
    5.0867    4.3075    0.0000 C   0  0  0  0  0  0  0  0  0  0  0  0
    3.6153    4.5989    0.0000 C   0  0  0  0  0  0  0  0  0  0  0  0
    2.6273    3.4703    0.0000 C   0  0  0  0  0  0  0  0  0  0  0  0
    0.1678    2.6330    0.0000 O   0  0  0  0  0  0  0  0  0  0  0  0
   -1.3036    2.9244    0.0000 C   0  0  0  0  0  0  0  0  0  0  0  0
   -1.7870    4.3444    0.0000 C   0  0  0  0  0  0  0  0  0  0  0  0
   -3.2585    4.6357    0.0000 C   0  0  0  0  0  0  0  0  0  0  0  0
   -4.2465    3.5071    0.0000 C   0  0  0  0  0  0  0  0  0  0  0  0
   -3.7631    2.0871    0.0000 C   0  0  0  0  0  0  0  0  0  0  0  0
   -2.2917    1.7958    0.0000 C   0  0  0  0  0  0  0  0  0  0  0  0
    0.1465   -1.3356    0.0000 P   0  0  0  0  0  0  0  0  0  0  0  0
   -0.8415   -2.4642    0.0000 O   0  0  0  0  0  0  0  0  0  0  0  0
   -2.3130   -2.1728    0.0000 C   0  0  0  0  0  0  0  0  0  0  0  0
   -3.3010   -3.3014    0.0000 C   0  0  0  0  0  0  0  0  0  0  0  0
   -4.7724   -3.0101    0.0000 C   0  0  0  0  0  0  0  0  0  0  0  0
   -5.2558   -1.5901    0.0000 C   0  0  0  0  0  0  0  0  0  0  0  0
   -4.2678   -0.4615    0.0000 C   0  0  0  0  0  0  0  0  0  0  0  0
   -2.7963   -0.7528    0.0000 C   0  0  0  0  0  0  0  0  0  0  0  0
    1.6179   -1.6269    0.0000 O   0  0  0  0  0  0  0  0  0  0  0  0
    2.1013   -3.0469    0.0000 C   0  0  0  0  0  0  0  0  0  0  0  0
    1.1133   -4.1755    0.0000 C   0  0  0  0  0  0  0  0  0  0  0  0
    1.5967   -5.5955    0.0000 C   0  0  0  0  0  0  0  0  0  0  0  0
    3.0681   -5.8869    0.0000 C   0  0  0  0  0  0  0  0  0  0  0  0
    4.0561   -4.7582    0.0000 C   0  0  0  0  0  0  0  0  0  0  0  0
    3.5728   -3.3383    0.0000 C   0  0  0  0  0  0  0  0  0  0  0  0
  1  2  1  0
  2  3  1  0
  3  4  1  0
  4  5  1  0
  5  6  1  0
  6  7  2  0
  7  8  1  0
  8  9  2  0
  9 10  1  0
 10 11  2  0
  4 12  1  0
 12 13  1  0
 13 14  2  0
 14 15  1  0
 15 16  2  0
 16 17  1  0
 17 18  2  0
  3 19  1  0
 19 20  1  0
 20 21  1  0
 21 22  2  0
 22 23  1  0
 23 24  2  0
 24 25  1  0
 25 26  2  0
 19 27  1  0
 27 28  1  0
 28 29  2  0
 29 30  1  0
 30 31  2  0
 31 32  1  0
 32 33  2  0
 11  6  1  0
 18 13  1  0
 26 21  1  0
 33 28  1  0
M  END
>  <linear_selectivity>  (1008) 
80

>  <denticity>  (1008) 
2

>  <ligand_class>  (1008) 
diphosphite

$$$$
diphosphite-C3_110C_toluene
     RDKit          2D

 33 36  0  0  0  0  0  0  0  0999 V2000
   -2.4629   -0.0791    0.0000 C   0  0  0  0  0  0  0  0  0  0  0  0
   -1.8083    0.3758    0.0000 C   0  0  0  0  0  0  0  0  0  0  0  0
   -0.3369    0.0844    0.0000 C   0  0  0  0  0  0  0  0  0  0  0  0
    0.6512    1.2130    0.0000 P   0  0  0  0  0  0  0  0  0  0  0  0
    2.1226    0.9217    0.0000 O   0  0  0  0  0  0  0  0  0  0  0  0
    3.1106    2.0503    0.0000 C   0  0  0  0  0  0  0  0  0  0  0  0
    4.5821    1.7589    0.0000 C   0  0  0  0  0  0  0  0  0  0  0  0
    5.5701    2.8875    0.0000 C   0  0  0  0  0  0  0  0  0  0  0  0
    5.0867    4.3075    0.0000 C   0  0  0  0  0  0  0  0  0  0  0  0
    3.6153    4.5989    0.0000 C   0  0  0  0  0  0  0  0  0  0  0  0
    2.6273    3.4703    0.0000 C   0  0  0  0  0  0  0  0  0  0  0  0
    0.1678    2.6330    0.0000 O   0  0  0  0  0  0  0  0  0  0  0  0
   -1.3036    2.9244    0.0000 C   0  0  0  0  0  0  0  0  0  0  0  0
   -1.7870    4.3444    0.0000 C   0  0  0  0  0  0  0  0  0  0  0  0
   -3.2585    4.6357    0.0000 C   0  0  0  0  0  0  0  0  0  0  0  0
   -4.2465    3.5071    0.0000 C   0  0  0  0  0  0  0  0  0  0  0  0
   -3.7631    2.0871    0.0000 C   0  0  0  0  0  0  0  0  0  0  0  0
   -2.2917    1.7958    0.0000 C   0  0  0  0  0  0  0  0  0  0  0  0
    0.1465   -1.3356    0.0000 P   0  0  0  0  0  0  0  0  0  0  0  0
   -0.8415   -2.4642    0.0000 O   0  0  0  0  0  0  0  0  0  0  0  0
   -2.3130   -2.1728    0.0000 C   0  0  0  0  0  0  0  0  0  0  0  0
   -3.3010   -3.3014    0.0000 C   0  0  0  0  0  0  0  0  0  0  0  0
   -4.7724   -3.0101    0.0000 C   0  0  0  0  0  0  0  0  0  0  0  0
   -5.2558   -1.5901    0.0000 C   0  0  0  0  0  0  0  0  0  0  0  0
   -4.2678   -0.4615    0.0000 C   0  0  0  0  0  0  0  0  0  0  0  0
   -2.7963   -0.7528    0.0000 C   0  0  0  0  0  0  0  0  0  0  0  0
    1.6179   -1.6269    0.0000 O   0  0  0  0  0  0  0  0  0  0  0  0
    2.1013   -3.0469    0.0000 C   0  0  0  0  0  0  0  0  0  0  0  0
    1.1133   -4.1755    0.0000 C   0  0  0  0  0  0  0  0  0  0  0  0
    1.5967   -5.5955    0.0000 C   0  0  0  0  0  0  0  0  0  0  0  0
    3.0681   -5.8869    0.0000 C   0  0  0  0  0  0  0  0  0  0  0  0
    4.0561   -4.7582    0.0000 C   0  0  0  0  0  0  0  0  0  0  0  0
    3.5728   -3.3383    0.0000 C   0  0  0  0  0  0  0  0  0  0  0  0
  1  2  1  0
  2  3  1  0
  3  4  1  0
  4  5  1  0
  5  6  1  0
  6  7  2  0
  7  8  1  0
  8  9  2  0
  9 10  1  0
 10 11  2  0
  4 12  1  0
 12 13  1  0
 13 14  2  0
 14 15  1  0
 15 16  2  0
 16 17  1  0
 17 18  2  0
  3 19  1  0
 19 20  1  0
 20 21  1  0
 21 22  2  0
 22 23  1  0
 23 24  2  0
 24 25  1  0
 25 26  2  0
 19 27  1  0
 27 28  1  0
 28 29  2  0
 29 30  1  0
 30 31  2  0
 31 32  1  0
 32 33  2  0
 11  6  1  0
 18 13  1  0
 26 21  1  0
 33 28  1  0
M  END
>  <linear_selectivity>  (1009) 
76

>  <denticity>  (1009) 
2

>  <ligand_class>  (1009) 
diphosphite

$$$$
diphosphite-C3_110C_THF
     RDKit          2D

 33 36  0  0  0  0  0  0  0  0999 V2000
   -2.4629   -0.0791    0.0000 C   0  0  0  0  0  0  0  0  0  0  0  0
   -1.8083    0.3758    0.0000 C   0  0  0  0  0  0  0  0  0  0  0  0
   -0.3369    0.0844    0.0000 C   0  0  0  0  0  0  0  0  0  0  0  0
    0.6512    1.2130    0.0000 P   0  0  0  0  0  0  0  0  0  0  0  0
    2.1226    0.9217    0.0000 O   0  0  0  0  0  0  0  0  0  0  0  0
    3.1106    2.0503    0.0000 C   0  0  0  0  0  0  0  0  0  0  0  0
    4.5821    1.7589    0.0000 C   0  0  0  0  0  0  0  0  0  0  0  0
    5.5701    2.8875    0.0000 C   0  0  0  0  0  0  0  0  0  0  0  0
    5.0867    4.3075    0.0000 C   0  0  0  0  0  0  0  0  0  0  0  0
    3.6153    4.5989    0.0000 C   0  0  0  0  0  0  0  0  0  0  0  0
    2.6273    3.4703    0.0000 C   0  0  0  0  0  0  0  0  0  0  0  0
    0.1678    2.6330    0.0000 O   0  0  0  0  0  0  0  0  0  0  0  0
   -1.3036    2.9244    0.0000 C   0  0  0  0  0  0  0  0  0  0  0  0
   -1.7870    4.3444    0.0000 C   0  0  0  0  0  0  0  0  0  0  0  0
   -3.2585    4.6357    0.0000 C   0  0  0  0  0  0  0  0  0  0  0  0
   -4.2465    3.5071    0.0000 C   0  0  0  0  0  0  0  0  0  0  0  0
   -3.7631    2.0871    0.0000 C   0  0  0  0  0  0  0  0  0  0  0  0
   -2.2917    1.7958    0.0000 C   0  0  0  0  0  0  0  0  0  0  0  0
    0.1465   -1.3356    0.0000 P   0  0  0  0  0  0  0  0  0  0  0  0
   -0.8415   -2.4642    0.0000 O   0  0  0  0  0  0  0  0  0  0  0  0
   -2.3130   -2.1728    0.0000 C   0  0  0  0  0  0  0  0  0  0  0  0
   -3.3010   -3.3014    0.0000 C   0  0  0  0  0  0  0  0  0  0  0  0
   -4.7724   -3.0101    0.0000 C   0  0  0  0  0  0  0  0  0  0  0  0
   -5.2558   -1.5901    0.0000 C   0  0  0  0  0  0  0  0  0  0  0  0
   -4.2678   -0.4615    0.0000 C   0  0  0  0  0  0  0  0  0  0  0  0
   -2.7963   -0.7528    0.0000 C   0  0  0  0  0  0  0  0  0  0  0  0
    1.6179   -1.6269    0.0000 O   0  0  0  0  0  0  0  0  0  0  0  0
    2.1013   -3.0469    0.0000 C   0  0  0  0  0  0  0  0  0  0  0  0
    1.1133   -4.1755    0.0000 C   0  0  0  0  0  0  0  0  0  0  0  0
    1.5967   -5.5955    0.0000 C   0  0  0  0  0  0  0  0  0  0  0  0
    3.0681   -5.8869    0.0000 C   0  0  0  0  0  0  0  0  0  0  0  0
    4.0561   -4.7582    0.0000 C   0  0  0  0  0  0  0  0  0  0  0  0
    3.5728   -3.3383    0.0000 C   0  0  0  0  0  0  0  0  0  0  0  0
  1  2  1  0
  2  3  1  0
  3  4  1  0
  4  5  1  0
  5  6  1  0
  6  7  2  0
  7  8  1  0
  8  9  2  0
  9 10  1  0
 10 11  2  0
  4 12  1  0
 12 13  1  0
 13 14  2  0
 14 15  1  0
 15 16  2  0
 16 17  1  0
 17 18  2  0
  3 19  1  0
 19 20  1  0
 20 21  1  0
 21 22  2  0
 22 23  1  0
 23 24  2  0
 24 25  1  0
 25 26  2  0
 19 27  1  0
 27 28  1  0
 28 29  2  0
 29 30  1  0
 30 31  2  0
 31 32  1  0
 32 33  2  0
 11  6  1  0
 18 13  1  0
 26 21  1  0
 33 28  1  0
M  END
>  <linear_selectivity>  (1010) 
75

>  <denticity>  (1010) 
2

>  <ligand_class>  (1010) 
diphosphite

$$$$
diphosphite-C3_110C_dioxane
     RDKit          2D

 33 36  0  0  0  0  0  0  0  0999 V2000
   -2.4629   -0.0791    0.0000 C   0  0  0  0  0  0  0  0  0  0  0  0
   -1.8083    0.3758    0.0000 C   0  0  0  0  0  0  0  0  0  0  0  0
   -0.3369    0.0844    0.0000 C   0  0  0  0  0  0  0  0  0  0  0  0
    0.6512    1.2130    0.0000 P   0  0  0  0  0  0  0  0  0  0  0  0
    2.1226    0.9217    0.0000 O   0  0  0  0  0  0  0  0  0  0  0  0
    3.1106    2.0503    0.0000 C   0  0  0  0  0  0  0  0  0  0  0  0
    4.5821    1.7589    0.0000 C   0  0  0  0  0  0  0  0  0  0  0  0
    5.5701    2.8875    0.0000 C   0  0  0  0  0  0  0  0  0  0  0  0
    5.0867    4.3075    0.0000 C   0  0  0  0  0  0  0  0  0  0  0  0
    3.6153    4.5989    0.0000 C   0  0  0  0  0  0  0  0  0  0  0  0
    2.6273    3.4703    0.0000 C   0  0  0  0  0  0  0  0  0  0  0  0
    0.1678    2.6330    0.0000 O   0  0  0  0  0  0  0  0  0  0  0  0
   -1.3036    2.9244    0.0000 C   0  0  0  0  0  0  0  0  0  0  0  0
   -1.7870    4.3444    0.0000 C   0  0  0  0  0  0  0  0  0  0  0  0
   -3.2585    4.6357    0.0000 C   0  0  0  0  0  0  0  0  0  0  0  0
   -4.2465    3.5071    0.0000 C   0  0  0  0  0  0  0  0  0  0  0  0
   -3.7631    2.0871    0.0000 C   0  0  0  0  0  0  0  0  0  0  0  0
   -2.2917    1.7958    0.0000 C   0  0  0  0  0  0  0  0  0  0  0  0
    0.1465   -1.3356    0.0000 P   0  0  0  0  0  0  0  0  0  0  0  0
   -0.8415   -2.4642    0.0000 O   0  0  0  0  0  0  0  0  0  0  0  0
   -2.3130   -2.1728    0.0000 C   0  0  0  0  0  0  0  0  0  0  0  0
   -3.3010   -3.3014    0.0000 C   0  0  0  0  0  0  0  0  0  0  0  0
   -4.7724   -3.0101    0.0000 C   0  0  0  0  0  0  0  0  0  0  0  0
   -5.2558   -1.5901    0.0000 C   0  0  0  0  0  0  0  0  0  0  0  0
   -4.2678   -0.4615    0.0000 C   0  0  0  0  0  0  0  0  0  0  0  0
   -2.7963   -0.7528    0.0000 C   0  0  0  0  0  0  0  0  0  0  0  0
    1.6179   -1.6269    0.0000 O   0  0  0  0  0  0  0  0  0  0  0  0
    2.1013   -3.0469    0.0000 C   0  0  0  0  0  0  0  0  0  0  0  0
    1.1133   -4.1755    0.0000 C   0  0  0  0  0  0  0  0  0  0  0  0
    1.5967   -5.5955    0.0000 C   0  0  0  0  0  0  0  0  0  0  0  0
    3.0681   -5.8869    0.0000 C   0  0  0  0  0  0  0  0  0  0  0  0
    4.0561   -4.7582    0.0000 C   0  0  0  0  0  0  0  0  0  0  0  0
    3.5728   -3.3383    0.0000 C   0  0  0  0  0  0  0  0  0  0  0  0
  1  2  1  0
  2  3  1  0
  3  4  1  0
  4  5  1  0
  5  6  1  0
  6  7  2  0
  7  8  1  0
  8  9  2  0
  9 10  1  0
 10 11  2  0
  4 12  1  0
 12 13  1  0
 13 14  2  0
 14 15  1  0
 15 16  2  0
 16 17  1  0
 17 18  2  0
  3 19  1  0
 19 20  1  0
 20 21  1  0
 21 22  2  0
 22 23  1  0
 23 24  2  0
 24 25  1  0
 25 26  2  0
 19 27  1  0
 27 28  1  0
 28 29  2  0
 29 30  1  0
 30 31  2  0
 31 32  1  0
 32 33  2  0
 11  6  1  0
 18 13  1  0
 26 21  1  0
 33 28  1  0
M  END
>  <linear_selectivity>  (1011) 
78

>  <denticity>  (1011) 
2

>  <ligand_class>  (1011) 
diphosphite

$$$$
diphosphite-C3_110C_benzene
     RDKit          2D

 33 36  0  0  0  0  0  0  0  0999 V2000
   -2.4629   -0.0791    0.0000 C   0  0  0  0  0  0  0  0  0  0  0  0
   -1.8083    0.3758    0.0000 C   0  0  0  0  0  0  0  0  0  0  0  0
   -0.3369    0.0844    0.0000 C   0  0  0  0  0  0  0  0  0  0  0  0
    0.6512    1.2130    0.0000 P   0  0  0  0  0  0  0  0  0  0  0  0
    2.1226    0.9217    0.0000 O   0  0  0  0  0  0  0  0  0  0  0  0
    3.1106    2.0503    0.0000 C   0  0  0  0  0  0  0  0  0  0  0  0
    4.5821    1.7589    0.0000 C   0  0  0  0  0  0  0  0  0  0  0  0
    5.5701    2.8875    0.0000 C   0  0  0  0  0  0  0  0  0  0  0  0
    5.0867    4.3075    0.0000 C   0  0  0  0  0  0  0  0  0  0  0  0
    3.6153    4.5989    0.0000 C   0  0  0  0  0  0  0  0  0  0  0  0
    2.6273    3.4703    0.0000 C   0  0  0  0  0  0  0  0  0  0  0  0
    0.1678    2.6330    0.0000 O   0  0  0  0  0  0  0  0  0  0  0  0
   -1.3036    2.9244    0.0000 C   0  0  0  0  0  0  0  0  0  0  0  0
   -1.7870    4.3444    0.0000 C   0  0  0  0  0  0  0  0  0  0  0  0
   -3.2585    4.6357    0.0000 C   0  0  0  0  0  0  0  0  0  0  0  0
   -4.2465    3.5071    0.0000 C   0  0  0  0  0  0  0  0  0  0  0  0
   -3.7631    2.0871    0.0000 C   0  0  0  0  0  0  0  0  0  0  0  0
   -2.2917    1.7958    0.0000 C   0  0  0  0  0  0  0  0  0  0  0  0
    0.1465   -1.3356    0.0000 P   0  0  0  0  0  0  0  0  0  0  0  0
   -0.8415   -2.4642    0.0000 O   0  0  0  0  0  0  0  0  0  0  0  0
   -2.3130   -2.1728    0.0000 C   0  0  0  0  0  0  0  0  0  0  0  0
   -3.3010   -3.3014    0.0000 C   0  0  0  0  0  0  0  0  0  0  0  0
   -4.7724   -3.0101    0.0000 C   0  0  0  0  0  0  0  0  0  0  0  0
   -5.2558   -1.5901    0.0000 C   0  0  0  0  0  0  0  0  0  0  0  0
   -4.2678   -0.4615    0.0000 C   0  0  0  0  0  0  0  0  0  0  0  0
   -2.7963   -0.7528    0.0000 C   0  0  0  0  0  0  0  0  0  0  0  0
    1.6179   -1.6269    0.0000 O   0  0  0  0  0  0  0  0  0  0  0  0
    2.1013   -3.0469    0.0000 C   0  0  0  0  0  0  0  0  0  0  0  0
    1.1133   -4.1755    0.0000 C   0  0  0  0  0  0  0  0  0  0  0  0
    1.5967   -5.5955    0.0000 C   0  0  0  0  0  0  0  0  0  0  0  0
    3.0681   -5.8869    0.0000 C   0  0  0  0  0  0  0  0  0  0  0  0
    4.0561   -4.7582    0.0000 C   0  0  0  0  0  0  0  0  0  0  0  0
    3.5728   -3.3383    0.0000 C   0  0  0  0  0  0  0  0  0  0  0  0
  1  2  1  0
  2  3  1  0
  3  4  1  0
  4  5  1  0
  5  6  1  0
  6  7  2  0
  7  8  1  0
  8  9  2  0
  9 10  1  0
 10 11  2  0
  4 12  1  0
 12 13  1  0
 13 14  2  0
 14 15  1  0
 15 16  2  0
 16 17  1  0
 17 18  2  0
  3 19  1  0
 19 20  1  0
 20 21  1  0
 21 22  2  0
 22 23  1  0
 23 24  2  0
 24 25  1  0
 25 26  2  0
 19 27  1  0
 27 28  1  0
 28 29  2  0
 29 30  1  0
 30 31  2  0
 31 32  1  0
 32 33  2  0
 11  6  1  0
 18 13  1  0
 26 21  1  0
 33 28  1  0
M  END
>  <linear_selectivity>  (1012) 
80

>  <denticity>  (1012) 
2

>  <ligand_class>  (1012) 
diphosphite

$$$$
diphosphite-C3_110C_xylene
     RDKit          2D

 33 36  0  0  0  0  0  0  0  0999 V2000
   -2.4629   -0.0791    0.0000 C   0  0  0  0  0  0  0  0  0  0  0  0
   -1.8083    0.3758    0.0000 C   0  0  0  0  0  0  0  0  0  0  0  0
   -0.3369    0.0844    0.0000 C   0  0  0  0  0  0  0  0  0  0  0  0
    0.6512    1.2130    0.0000 P   0  0  0  0  0  0  0  0  0  0  0  0
    2.1226    0.9217    0.0000 O   0  0  0  0  0  0  0  0  0  0  0  0
    3.1106    2.0503    0.0000 C   0  0  0  0  0  0  0  0  0  0  0  0
    4.5821    1.7589    0.0000 C   0  0  0  0  0  0  0  0  0  0  0  0
    5.5701    2.8875    0.0000 C   0  0  0  0  0  0  0  0  0  0  0  0
    5.0867    4.3075    0.0000 C   0  0  0  0  0  0  0  0  0  0  0  0
    3.6153    4.5989    0.0000 C   0  0  0  0  0  0  0  0  0  0  0  0
    2.6273    3.4703    0.0000 C   0  0  0  0  0  0  0  0  0  0  0  0
    0.1678    2.6330    0.0000 O   0  0  0  0  0  0  0  0  0  0  0  0
   -1.3036    2.9244    0.0000 C   0  0  0  0  0  0  0  0  0  0  0  0
   -1.7870    4.3444    0.0000 C   0  0  0  0  0  0  0  0  0  0  0  0
   -3.2585    4.6357    0.0000 C   0  0  0  0  0  0  0  0  0  0  0  0
   -4.2465    3.5071    0.0000 C   0  0  0  0  0  0  0  0  0  0  0  0
   -3.7631    2.0871    0.0000 C   0  0  0  0  0  0  0  0  0  0  0  0
   -2.2917    1.7958    0.0000 C   0  0  0  0  0  0  0  0  0  0  0  0
    0.1465   -1.3356    0.0000 P   0  0  0  0  0  0  0  0  0  0  0  0
   -0.8415   -2.4642    0.0000 O   0  0  0  0  0  0  0  0  0  0  0  0
   -2.3130   -2.1728    0.0000 C   0  0  0  0  0  0  0  0  0  0  0  0
   -3.3010   -3.3014    0.0000 C   0  0  0  0  0  0  0  0  0  0  0  0
   -4.7724   -3.0101    0.0000 C   0  0  0  0  0  0  0  0  0  0  0  0
   -5.2558   -1.5901    0.0000 C   0  0  0  0  0  0  0  0  0  0  0  0
   -4.2678   -0.4615    0.0000 C   0  0  0  0  0  0  0  0  0  0  0  0
   -2.7963   -0.7528    0.0000 C   0  0  0  0  0  0  0  0  0  0  0  0
    1.6179   -1.6269    0.0000 O   0  0  0  0  0  0  0  0  0  0  0  0
    2.1013   -3.0469    0.0000 C   0  0  0  0  0  0  0  0  0  0  0  0
    1.1133   -4.1755    0.0000 C   0  0  0  0  0  0  0  0  0  0  0  0
    1.5967   -5.5955    0.0000 C   0  0  0  0  0  0  0  0  0  0  0  0
    3.0681   -5.8869    0.0000 C   0  0  0  0  0  0  0  0  0  0  0  0
    4.0561   -4.7582    0.0000 C   0  0  0  0  0  0  0  0  0  0  0  0
    3.5728   -3.3383    0.0000 C   0  0  0  0  0  0  0  0  0  0  0  0
  1  2  1  0
  2  3  1  0
  3  4  1  0
  4  5  1  0
  5  6  1  0
  6  7  2  0
  7  8  1  0
  8  9  2  0
  9 10  1  0
 10 11  2  0
  4 12  1  0
 12 13  1  0
 13 14  2  0
 14 15  1  0
 15 16  2  0
 16 17  1  0
 17 18  2  0
  3 19  1  0
 19 20  1  0
 20 21  1  0
 21 22  2  0
 22 23  1  0
 23 24  2  0
 24 25  1  0
 25 26  2  0
 19 27  1  0
 27 28  1  0
 28 29  2  0
 29 30  1  0
 30 31  2  0
 31 32  1  0
 32 33  2  0
 11  6  1  0
 18 13  1  0
 26 21  1  0
 33 28  1  0
M  END
>  <linear_selectivity>  (1013) 
80

>  <denticity>  (1013) 
2

>  <ligand_class>  (1013) 
diphosphite

$$$$
diphosphite-C3_120C_toluene
     RDKit          2D

 33 36  0  0  0  0  0  0  0  0999 V2000
   -2.4629   -0.0791    0.0000 C   0  0  0  0  0  0  0  0  0  0  0  0
   -1.8083    0.3758    0.0000 C   0  0  0  0  0  0  0  0  0  0  0  0
   -0.3369    0.0844    0.0000 C   0  0  0  0  0  0  0  0  0  0  0  0
    0.6512    1.2130    0.0000 P   0  0  0  0  0  0  0  0  0  0  0  0
    2.1226    0.9217    0.0000 O   0  0  0  0  0  0  0  0  0  0  0  0
    3.1106    2.0503    0.0000 C   0  0  0  0  0  0  0  0  0  0  0  0
    4.5821    1.7589    0.0000 C   0  0  0  0  0  0  0  0  0  0  0  0
    5.5701    2.8875    0.0000 C   0  0  0  0  0  0  0  0  0  0  0  0
    5.0867    4.3075    0.0000 C   0  0  0  0  0  0  0  0  0  0  0  0
    3.6153    4.5989    0.0000 C   0  0  0  0  0  0  0  0  0  0  0  0
    2.6273    3.4703    0.0000 C   0  0  0  0  0  0  0  0  0  0  0  0
    0.1678    2.6330    0.0000 O   0  0  0  0  0  0  0  0  0  0  0  0
   -1.3036    2.9244    0.0000 C   0  0  0  0  0  0  0  0  0  0  0  0
   -1.7870    4.3444    0.0000 C   0  0  0  0  0  0  0  0  0  0  0  0
   -3.2585    4.6357    0.0000 C   0  0  0  0  0  0  0  0  0  0  0  0
   -4.2465    3.5071    0.0000 C   0  0  0  0  0  0  0  0  0  0  0  0
   -3.7631    2.0871    0.0000 C   0  0  0  0  0  0  0  0  0  0  0  0
   -2.2917    1.7958    0.0000 C   0  0  0  0  0  0  0  0  0  0  0  0
    0.1465   -1.3356    0.0000 P   0  0  0  0  0  0  0  0  0  0  0  0
   -0.8415   -2.4642    0.0000 O   0  0  0  0  0  0  0  0  0  0  0  0
   -2.3130   -2.1728    0.0000 C   0  0  0  0  0  0  0  0  0  0  0  0
   -3.3010   -3.3014    0.0000 C   0  0  0  0  0  0  0  0  0  0  0  0
   -4.7724   -3.0101    0.0000 C   0  0  0  0  0  0  0  0  0  0  0  0
   -5.2558   -1.5901    0.0000 C   0  0  0  0  0  0  0  0  0  0  0  0
   -4.2678   -0.4615    0.0000 C   0  0  0  0  0  0  0  0  0  0  0  0
   -2.7963   -0.7528    0.0000 C   0  0  0  0  0  0  0  0  0  0  0  0
    1.6179   -1.6269    0.0000 O   0  0  0  0  0  0  0  0  0  0  0  0
    2.1013   -3.0469    0.0000 C   0  0  0  0  0  0  0  0  0  0  0  0
    1.1133   -4.1755    0.0000 C   0  0  0  0  0  0  0  0  0  0  0  0
    1.5967   -5.5955    0.0000 C   0  0  0  0  0  0  0  0  0  0  0  0
    3.0681   -5.8869    0.0000 C   0  0  0  0  0  0  0  0  0  0  0  0
    4.0561   -4.7582    0.0000 C   0  0  0  0  0  0  0  0  0  0  0  0
    3.5728   -3.3383    0.0000 C   0  0  0  0  0  0  0  0  0  0  0  0
  1  2  1  0
  2  3  1  0
  3  4  1  0
  4  5  1  0
  5  6  1  0
  6  7  2  0
  7  8  1  0
  8  9  2  0
  9 10  1  0
 10 11  2  0
  4 12  1  0
 12 13  1  0
 13 14  2  0
 14 15  1  0
 15 16  2  0
 16 17  1  0
 17 18  2  0
  3 19  1  0
 19 20  1  0
 20 21  1  0
 21 22  2  0
 22 23  1  0
 23 24  2  0
 24 25  1  0
 25 26  2  0
 19 27  1  0
 27 28  1  0
 28 29  2  0
 29 30  1  0
 30 31  2  0
 31 32  1  0
 32 33  2  0
 11  6  1  0
 18 13  1  0
 26 21  1  0
 33 28  1  0
M  END
>  <linear_selectivity>  (1014) 
76

>  <denticity>  (1014) 
2

>  <ligand_class>  (1014) 
diphosphite

$$$$
diphosphite-C3_120C_THF
     RDKit          2D

 33 36  0  0  0  0  0  0  0  0999 V2000
   -2.4629   -0.0791    0.0000 C   0  0  0  0  0  0  0  0  0  0  0  0
   -1.8083    0.3758    0.0000 C   0  0  0  0  0  0  0  0  0  0  0  0
   -0.3369    0.0844    0.0000 C   0  0  0  0  0  0  0  0  0  0  0  0
    0.6512    1.2130    0.0000 P   0  0  0  0  0  0  0  0  0  0  0  0
    2.1226    0.9217    0.0000 O   0  0  0  0  0  0  0  0  0  0  0  0
    3.1106    2.0503    0.0000 C   0  0  0  0  0  0  0  0  0  0  0  0
    4.5821    1.7589    0.0000 C   0  0  0  0  0  0  0  0  0  0  0  0
    5.5701    2.8875    0.0000 C   0  0  0  0  0  0  0  0  0  0  0  0
    5.0867    4.3075    0.0000 C   0  0  0  0  0  0  0  0  0  0  0  0
    3.6153    4.5989    0.0000 C   0  0  0  0  0  0  0  0  0  0  0  0
    2.6273    3.4703    0.0000 C   0  0  0  0  0  0  0  0  0  0  0  0
    0.1678    2.6330    0.0000 O   0  0  0  0  0  0  0  0  0  0  0  0
   -1.3036    2.9244    0.0000 C   0  0  0  0  0  0  0  0  0  0  0  0
   -1.7870    4.3444    0.0000 C   0  0  0  0  0  0  0  0  0  0  0  0
   -3.2585    4.6357    0.0000 C   0  0  0  0  0  0  0  0  0  0  0  0
   -4.2465    3.5071    0.0000 C   0  0  0  0  0  0  0  0  0  0  0  0
   -3.7631    2.0871    0.0000 C   0  0  0  0  0  0  0  0  0  0  0  0
   -2.2917    1.7958    0.0000 C   0  0  0  0  0  0  0  0  0  0  0  0
    0.1465   -1.3356    0.0000 P   0  0  0  0  0  0  0  0  0  0  0  0
   -0.8415   -2.4642    0.0000 O   0  0  0  0  0  0  0  0  0  0  0  0
   -2.3130   -2.1728    0.0000 C   0  0  0  0  0  0  0  0  0  0  0  0
   -3.3010   -3.3014    0.0000 C   0  0  0  0  0  0  0  0  0  0  0  0
   -4.7724   -3.0101    0.0000 C   0  0  0  0  0  0  0  0  0  0  0  0
   -5.2558   -1.5901    0.0000 C   0  0  0  0  0  0  0  0  0  0  0  0
   -4.2678   -0.4615    0.0000 C   0  0  0  0  0  0  0  0  0  0  0  0
   -2.7963   -0.7528    0.0000 C   0  0  0  0  0  0  0  0  0  0  0  0
    1.6179   -1.6269    0.0000 O   0  0  0  0  0  0  0  0  0  0  0  0
    2.1013   -3.0469    0.0000 C   0  0  0  0  0  0  0  0  0  0  0  0
    1.1133   -4.1755    0.0000 C   0  0  0  0  0  0  0  0  0  0  0  0
    1.5967   -5.5955    0.0000 C   0  0  0  0  0  0  0  0  0  0  0  0
    3.0681   -5.8869    0.0000 C   0  0  0  0  0  0  0  0  0  0  0  0
    4.0561   -4.7582    0.0000 C   0  0  0  0  0  0  0  0  0  0  0  0
    3.5728   -3.3383    0.0000 C   0  0  0  0  0  0  0  0  0  0  0  0
  1  2  1  0
  2  3  1  0
  3  4  1  0
  4  5  1  0
  5  6  1  0
  6  7  2  0
  7  8  1  0
  8  9  2  0
  9 10  1  0
 10 11  2  0
  4 12  1  0
 12 13  1  0
 13 14  2  0
 14 15  1  0
 15 16  2  0
 16 17  1  0
 17 18  2  0
  3 19  1  0
 19 20  1  0
 20 21  1  0
 21 22  2  0
 22 23  1  0
 23 24  2  0
 24 25  1  0
 25 26  2  0
 19 27  1  0
 27 28  1  0
 28 29  2  0
 29 30  1  0
 30 31  2  0
 31 32  1  0
 32 33  2  0
 11  6  1  0
 18 13  1  0
 26 21  1  0
 33 28  1  0
M  END
>  <linear_selectivity>  (1015) 
69

>  <denticity>  (1015) 
2

>  <ligand_class>  (1015) 
diphosphite

$$$$
diphosphite-C3_120C_dioxane
     RDKit          2D

 33 36  0  0  0  0  0  0  0  0999 V2000
   -2.4629   -0.0791    0.0000 C   0  0  0  0  0  0  0  0  0  0  0  0
   -1.8083    0.3758    0.0000 C   0  0  0  0  0  0  0  0  0  0  0  0
   -0.3369    0.0844    0.0000 C   0  0  0  0  0  0  0  0  0  0  0  0
    0.6512    1.2130    0.0000 P   0  0  0  0  0  0  0  0  0  0  0  0
    2.1226    0.9217    0.0000 O   0  0  0  0  0  0  0  0  0  0  0  0
    3.1106    2.0503    0.0000 C   0  0  0  0  0  0  0  0  0  0  0  0
    4.5821    1.7589    0.0000 C   0  0  0  0  0  0  0  0  0  0  0  0
    5.5701    2.8875    0.0000 C   0  0  0  0  0  0  0  0  0  0  0  0
    5.0867    4.3075    0.0000 C   0  0  0  0  0  0  0  0  0  0  0  0
    3.6153    4.5989    0.0000 C   0  0  0  0  0  0  0  0  0  0  0  0
    2.6273    3.4703    0.0000 C   0  0  0  0  0  0  0  0  0  0  0  0
    0.1678    2.6330    0.0000 O   0  0  0  0  0  0  0  0  0  0  0  0
   -1.3036    2.9244    0.0000 C   0  0  0  0  0  0  0  0  0  0  0  0
   -1.7870    4.3444    0.0000 C   0  0  0  0  0  0  0  0  0  0  0  0
   -3.2585    4.6357    0.0000 C   0  0  0  0  0  0  0  0  0  0  0  0
   -4.2465    3.5071    0.0000 C   0  0  0  0  0  0  0  0  0  0  0  0
   -3.7631    2.0871    0.0000 C   0  0  0  0  0  0  0  0  0  0  0  0
   -2.2917    1.7958    0.0000 C   0  0  0  0  0  0  0  0  0  0  0  0
    0.1465   -1.3356    0.0000 P   0  0  0  0  0  0  0  0  0  0  0  0
   -0.8415   -2.4642    0.0000 O   0  0  0  0  0  0  0  0  0  0  0  0
   -2.3130   -2.1728    0.0000 C   0  0  0  0  0  0  0  0  0  0  0  0
   -3.3010   -3.3014    0.0000 C   0  0  0  0  0  0  0  0  0  0  0  0
   -4.7724   -3.0101    0.0000 C   0  0  0  0  0  0  0  0  0  0  0  0
   -5.2558   -1.5901    0.0000 C   0  0  0  0  0  0  0  0  0  0  0  0
   -4.2678   -0.4615    0.0000 C   0  0  0  0  0  0  0  0  0  0  0  0
   -2.7963   -0.7528    0.0000 C   0  0  0  0  0  0  0  0  0  0  0  0
    1.6179   -1.6269    0.0000 O   0  0  0  0  0  0  0  0  0  0  0  0
    2.1013   -3.0469    0.0000 C   0  0  0  0  0  0  0  0  0  0  0  0
    1.1133   -4.1755    0.0000 C   0  0  0  0  0  0  0  0  0  0  0  0
    1.5967   -5.5955    0.0000 C   0  0  0  0  0  0  0  0  0  0  0  0
    3.0681   -5.8869    0.0000 C   0  0  0  0  0  0  0  0  0  0  0  0
    4.0561   -4.7582    0.0000 C   0  0  0  0  0  0  0  0  0  0  0  0
    3.5728   -3.3383    0.0000 C   0  0  0  0  0  0  0  0  0  0  0  0
  1  2  1  0
  2  3  1  0
  3  4  1  0
  4  5  1  0
  5  6  1  0
  6  7  2  0
  7  8  1  0
  8  9  2  0
  9 10  1  0
 10 11  2  0
  4 12  1  0
 12 13  1  0
 13 14  2  0
 14 15  1  0
 15 16  2  0
 16 17  1  0
 17 18  2  0
  3 19  1  0
 19 20  1  0
 20 21  1  0
 21 22  2  0
 22 23  1  0
 23 24  2  0
 24 25  1  0
 25 26  2  0
 19 27  1  0
 27 28  1  0
 28 29  2  0
 29 30  1  0
 30 31  2  0
 31 32  1  0
 32 33  2  0
 11  6  1  0
 18 13  1  0
 26 21  1  0
 33 28  1  0
M  END
>  <linear_selectivity>  (1016) 
73

>  <denticity>  (1016) 
2

>  <ligand_class>  (1016) 
diphosphite

$$$$
diphosphite-C3_120C_hexane
     RDKit          2D

 33 36  0  0  0  0  0  0  0  0999 V2000
   -2.4629   -0.0791    0.0000 C   0  0  0  0  0  0  0  0  0  0  0  0
   -1.8083    0.3758    0.0000 C   0  0  0  0  0  0  0  0  0  0  0  0
   -0.3369    0.0844    0.0000 C   0  0  0  0  0  0  0  0  0  0  0  0
    0.6512    1.2130    0.0000 P   0  0  0  0  0  0  0  0  0  0  0  0
    2.1226    0.9217    0.0000 O   0  0  0  0  0  0  0  0  0  0  0  0
    3.1106    2.0503    0.0000 C   0  0  0  0  0  0  0  0  0  0  0  0
    4.5821    1.7589    0.0000 C   0  0  0  0  0  0  0  0  0  0  0  0
    5.5701    2.8875    0.0000 C   0  0  0  0  0  0  0  0  0  0  0  0
    5.0867    4.3075    0.0000 C   0  0  0  0  0  0  0  0  0  0  0  0
    3.6153    4.5989    0.0000 C   0  0  0  0  0  0  0  0  0  0  0  0
    2.6273    3.4703    0.0000 C   0  0  0  0  0  0  0  0  0  0  0  0
    0.1678    2.6330    0.0000 O   0  0  0  0  0  0  0  0  0  0  0  0
   -1.3036    2.9244    0.0000 C   0  0  0  0  0  0  0  0  0  0  0  0
   -1.7870    4.3444    0.0000 C   0  0  0  0  0  0  0  0  0  0  0  0
   -3.2585    4.6357    0.0000 C   0  0  0  0  0  0  0  0  0  0  0  0
   -4.2465    3.5071    0.0000 C   0  0  0  0  0  0  0  0  0  0  0  0
   -3.7631    2.0871    0.0000 C   0  0  0  0  0  0  0  0  0  0  0  0
   -2.2917    1.7958    0.0000 C   0  0  0  0  0  0  0  0  0  0  0  0
    0.1465   -1.3356    0.0000 P   0  0  0  0  0  0  0  0  0  0  0  0
   -0.8415   -2.4642    0.0000 O   0  0  0  0  0  0  0  0  0  0  0  0
   -2.3130   -2.1728    0.0000 C   0  0  0  0  0  0  0  0  0  0  0  0
   -3.3010   -3.3014    0.0000 C   0  0  0  0  0  0  0  0  0  0  0  0
   -4.7724   -3.0101    0.0000 C   0  0  0  0  0  0  0  0  0  0  0  0
   -5.2558   -1.5901    0.0000 C   0  0  0  0  0  0  0  0  0  0  0  0
   -4.2678   -0.4615    0.0000 C   0  0  0  0  0  0  0  0  0  0  0  0
   -2.7963   -0.7528    0.0000 C   0  0  0  0  0  0  0  0  0  0  0  0
    1.6179   -1.6269    0.0000 O   0  0  0  0  0  0  0  0  0  0  0  0
    2.1013   -3.0469    0.0000 C   0  0  0  0  0  0  0  0  0  0  0  0
    1.1133   -4.1755    0.0000 C   0  0  0  0  0  0  0  0  0  0  0  0
    1.5967   -5.5955    0.0000 C   0  0  0  0  0  0  0  0  0  0  0  0
    3.0681   -5.8869    0.0000 C   0  0  0  0  0  0  0  0  0  0  0  0
    4.0561   -4.7582    0.0000 C   0  0  0  0  0  0  0  0  0  0  0  0
    3.5728   -3.3383    0.0000 C   0  0  0  0  0  0  0  0  0  0  0  0
  1  2  1  0
  2  3  1  0
  3  4  1  0
  4  5  1  0
  5  6  1  0
  6  7  2  0
  7  8  1  0
  8  9  2  0
  9 10  1  0
 10 11  2  0
  4 12  1  0
 12 13  1  0
 13 14  2  0
 14 15  1  0
 15 16  2  0
 16 17  1  0
 17 18  2  0
  3 19  1  0
 19 20  1  0
 20 21  1  0
 21 22  2  0
 22 23  1  0
 23 24  2  0
 24 25  1  0
 25 26  2  0
 19 27  1  0
 27 28  1  0
 28 29  2  0
 29 30  1  0
 30 31  2  0
 31 32  1  0
 32 33  2  0
 11  6  1  0
 18 13  1  0
 26 21  1  0
 33 28  1  0
M  END
>  <linear_selectivity>  (1017) 
79

>  <denticity>  (1017) 
2

>  <ligand_class>  (1017) 
diphosphite

$$$$
diphosphite-C3_120C_benzene
     RDKit          2D

 33 36  0  0  0  0  0  0  0  0999 V2000
   -2.4629   -0.0791    0.0000 C   0  0  0  0  0  0  0  0  0  0  0  0
   -1.8083    0.3758    0.0000 C   0  0  0  0  0  0  0  0  0  0  0  0
   -0.3369    0.0844    0.0000 C   0  0  0  0  0  0  0  0  0  0  0  0
    0.6512    1.2130    0.0000 P   0  0  0  0  0  0  0  0  0  0  0  0
    2.1226    0.9217    0.0000 O   0  0  0  0  0  0  0  0  0  0  0  0
    3.1106    2.0503    0.0000 C   0  0  0  0  0  0  0  0  0  0  0  0
    4.5821    1.7589    0.0000 C   0  0  0  0  0  0  0  0  0  0  0  0
    5.5701    2.8875    0.0000 C   0  0  0  0  0  0  0  0  0  0  0  0
    5.0867    4.3075    0.0000 C   0  0  0  0  0  0  0  0  0  0  0  0
    3.6153    4.5989    0.0000 C   0  0  0  0  0  0  0  0  0  0  0  0
    2.6273    3.4703    0.0000 C   0  0  0  0  0  0  0  0  0  0  0  0
    0.1678    2.6330    0.0000 O   0  0  0  0  0  0  0  0  0  0  0  0
   -1.3036    2.9244    0.0000 C   0  0  0  0  0  0  0  0  0  0  0  0
   -1.7870    4.3444    0.0000 C   0  0  0  0  0  0  0  0  0  0  0  0
   -3.2585    4.6357    0.0000 C   0  0  0  0  0  0  0  0  0  0  0  0
   -4.2465    3.5071    0.0000 C   0  0  0  0  0  0  0  0  0  0  0  0
   -3.7631    2.0871    0.0000 C   0  0  0  0  0  0  0  0  0  0  0  0
   -2.2917    1.7958    0.0000 C   0  0  0  0  0  0  0  0  0  0  0  0
    0.1465   -1.3356    0.0000 P   0  0  0  0  0  0  0  0  0  0  0  0
   -0.8415   -2.4642    0.0000 O   0  0  0  0  0  0  0  0  0  0  0  0
   -2.3130   -2.1728    0.0000 C   0  0  0  0  0  0  0  0  0  0  0  0
   -3.3010   -3.3014    0.0000 C   0  0  0  0  0  0  0  0  0  0  0  0
   -4.7724   -3.0101    0.0000 C   0  0  0  0  0  0  0  0  0  0  0  0
   -5.2558   -1.5901    0.0000 C   0  0  0  0  0  0  0  0  0  0  0  0
   -4.2678   -0.4615    0.0000 C   0  0  0  0  0  0  0  0  0  0  0  0
   -2.7963   -0.7528    0.0000 C   0  0  0  0  0  0  0  0  0  0  0  0
    1.6179   -1.6269    0.0000 O   0  0  0  0  0  0  0  0  0  0  0  0
    2.1013   -3.0469    0.0000 C   0  0  0  0  0  0  0  0  0  0  0  0
    1.1133   -4.1755    0.0000 C   0  0  0  0  0  0  0  0  0  0  0  0
    1.5967   -5.5955    0.0000 C   0  0  0  0  0  0  0  0  0  0  0  0
    3.0681   -5.8869    0.0000 C   0  0  0  0  0  0  0  0  0  0  0  0
    4.0561   -4.7582    0.0000 C   0  0  0  0  0  0  0  0  0  0  0  0
    3.5728   -3.3383    0.0000 C   0  0  0  0  0  0  0  0  0  0  0  0
  1  2  1  0
  2  3  1  0
  3  4  1  0
  4  5  1  0
  5  6  1  0
  6  7  2  0
  7  8  1  0
  8  9  2  0
  9 10  1  0
 10 11  2  0
  4 12  1  0
 12 13  1  0
 13 14  2  0
 14 15  1  0
 15 16  2  0
 16 17  1  0
 17 18  2  0
  3 19  1  0
 19 20  1  0
 20 21  1  0
 21 22  2  0
 22 23  1  0
 23 24  2  0
 24 25  1  0
 25 26  2  0
 19 27  1  0
 27 28  1  0
 28 29  2  0
 29 30  1  0
 30 31  2  0
 31 32  1  0
 32 33  2  0
 11  6  1  0
 18 13  1  0
 26 21  1  0
 33 28  1  0
M  END
>  <linear_selectivity>  (1018) 
79

>  <denticity>  (1018) 
2

>  <ligand_class>  (1018) 
diphosphite

$$$$
diphosphite-C3_130C_toluene
     RDKit          2D

 33 36  0  0  0  0  0  0  0  0999 V2000
   -2.4629   -0.0791    0.0000 C   0  0  0  0  0  0  0  0  0  0  0  0
   -1.8083    0.3758    0.0000 C   0  0  0  0  0  0  0  0  0  0  0  0
   -0.3369    0.0844    0.0000 C   0  0  0  0  0  0  0  0  0  0  0  0
    0.6512    1.2130    0.0000 P   0  0  0  0  0  0  0  0  0  0  0  0
    2.1226    0.9217    0.0000 O   0  0  0  0  0  0  0  0  0  0  0  0
    3.1106    2.0503    0.0000 C   0  0  0  0  0  0  0  0  0  0  0  0
    4.5821    1.7589    0.0000 C   0  0  0  0  0  0  0  0  0  0  0  0
    5.5701    2.8875    0.0000 C   0  0  0  0  0  0  0  0  0  0  0  0
    5.0867    4.3075    0.0000 C   0  0  0  0  0  0  0  0  0  0  0  0
    3.6153    4.5989    0.0000 C   0  0  0  0  0  0  0  0  0  0  0  0
    2.6273    3.4703    0.0000 C   0  0  0  0  0  0  0  0  0  0  0  0
    0.1678    2.6330    0.0000 O   0  0  0  0  0  0  0  0  0  0  0  0
   -1.3036    2.9244    0.0000 C   0  0  0  0  0  0  0  0  0  0  0  0
   -1.7870    4.3444    0.0000 C   0  0  0  0  0  0  0  0  0  0  0  0
   -3.2585    4.6357    0.0000 C   0  0  0  0  0  0  0  0  0  0  0  0
   -4.2465    3.5071    0.0000 C   0  0  0  0  0  0  0  0  0  0  0  0
   -3.7631    2.0871    0.0000 C   0  0  0  0  0  0  0  0  0  0  0  0
   -2.2917    1.7958    0.0000 C   0  0  0  0  0  0  0  0  0  0  0  0
    0.1465   -1.3356    0.0000 P   0  0  0  0  0  0  0  0  0  0  0  0
   -0.8415   -2.4642    0.0000 O   0  0  0  0  0  0  0  0  0  0  0  0
   -2.3130   -2.1728    0.0000 C   0  0  0  0  0  0  0  0  0  0  0  0
   -3.3010   -3.3014    0.0000 C   0  0  0  0  0  0  0  0  0  0  0  0
   -4.7724   -3.0101    0.0000 C   0  0  0  0  0  0  0  0  0  0  0  0
   -5.2558   -1.5901    0.0000 C   0  0  0  0  0  0  0  0  0  0  0  0
   -4.2678   -0.4615    0.0000 C   0  0  0  0  0  0  0  0  0  0  0  0
   -2.7963   -0.7528    0.0000 C   0  0  0  0  0  0  0  0  0  0  0  0
    1.6179   -1.6269    0.0000 O   0  0  0  0  0  0  0  0  0  0  0  0
    2.1013   -3.0469    0.0000 C   0  0  0  0  0  0  0  0  0  0  0  0
    1.1133   -4.1755    0.0000 C   0  0  0  0  0  0  0  0  0  0  0  0
    1.5967   -5.5955    0.0000 C   0  0  0  0  0  0  0  0  0  0  0  0
    3.0681   -5.8869    0.0000 C   0  0  0  0  0  0  0  0  0  0  0  0
    4.0561   -4.7582    0.0000 C   0  0  0  0  0  0  0  0  0  0  0  0
    3.5728   -3.3383    0.0000 C   0  0  0  0  0  0  0  0  0  0  0  0
  1  2  1  0
  2  3  1  0
  3  4  1  0
  4  5  1  0
  5  6  1  0
  6  7  2  0
  7  8  1  0
  8  9  2  0
  9 10  1  0
 10 11  2  0
  4 12  1  0
 12 13  1  0
 13 14  2  0
 14 15  1  0
 15 16  2  0
 16 17  1  0
 17 18  2  0
  3 19  1  0
 19 20  1  0
 20 21  1  0
 21 22  2  0
 22 23  1  0
 23 24  2  0
 24 25  1  0
 25 26  2  0
 19 27  1  0
 27 28  1  0
 28 29  2  0
 29 30  1  0
 30 31  2  0
 31 32  1  0
 32 33  2  0
 11  6  1  0
 18 13  1  0
 26 21  1  0
 33 28  1  0
M  END
>  <linear_selectivity>  (1019) 
71

>  <denticity>  (1019) 
2

>  <ligand_class>  (1019) 
diphosphite

$$$$
diphosphite-C3_130C_THF
     RDKit          2D

 33 36  0  0  0  0  0  0  0  0999 V2000
   -2.4629   -0.0791    0.0000 C   0  0  0  0  0  0  0  0  0  0  0  0
   -1.8083    0.3758    0.0000 C   0  0  0  0  0  0  0  0  0  0  0  0
   -0.3369    0.0844    0.0000 C   0  0  0  0  0  0  0  0  0  0  0  0
    0.6512    1.2130    0.0000 P   0  0  0  0  0  0  0  0  0  0  0  0
    2.1226    0.9217    0.0000 O   0  0  0  0  0  0  0  0  0  0  0  0
    3.1106    2.0503    0.0000 C   0  0  0  0  0  0  0  0  0  0  0  0
    4.5821    1.7589    0.0000 C   0  0  0  0  0  0  0  0  0  0  0  0
    5.5701    2.8875    0.0000 C   0  0  0  0  0  0  0  0  0  0  0  0
    5.0867    4.3075    0.0000 C   0  0  0  0  0  0  0  0  0  0  0  0
    3.6153    4.5989    0.0000 C   0  0  0  0  0  0  0  0  0  0  0  0
    2.6273    3.4703    0.0000 C   0  0  0  0  0  0  0  0  0  0  0  0
    0.1678    2.6330    0.0000 O   0  0  0  0  0  0  0  0  0  0  0  0
   -1.3036    2.9244    0.0000 C   0  0  0  0  0  0  0  0  0  0  0  0
   -1.7870    4.3444    0.0000 C   0  0  0  0  0  0  0  0  0  0  0  0
   -3.2585    4.6357    0.0000 C   0  0  0  0  0  0  0  0  0  0  0  0
   -4.2465    3.5071    0.0000 C   0  0  0  0  0  0  0  0  0  0  0  0
   -3.7631    2.0871    0.0000 C   0  0  0  0  0  0  0  0  0  0  0  0
   -2.2917    1.7958    0.0000 C   0  0  0  0  0  0  0  0  0  0  0  0
    0.1465   -1.3356    0.0000 P   0  0  0  0  0  0  0  0  0  0  0  0
   -0.8415   -2.4642    0.0000 O   0  0  0  0  0  0  0  0  0  0  0  0
   -2.3130   -2.1728    0.0000 C   0  0  0  0  0  0  0  0  0  0  0  0
   -3.3010   -3.3014    0.0000 C   0  0  0  0  0  0  0  0  0  0  0  0
   -4.7724   -3.0101    0.0000 C   0  0  0  0  0  0  0  0  0  0  0  0
   -5.2558   -1.5901    0.0000 C   0  0  0  0  0  0  0  0  0  0  0  0
   -4.2678   -0.4615    0.0000 C   0  0  0  0  0  0  0  0  0  0  0  0
   -2.7963   -0.7528    0.0000 C   0  0  0  0  0  0  0  0  0  0  0  0
    1.6179   -1.6269    0.0000 O   0  0  0  0  0  0  0  0  0  0  0  0
    2.1013   -3.0469    0.0000 C   0  0  0  0  0  0  0  0  0  0  0  0
    1.1133   -4.1755    0.0000 C   0  0  0  0  0  0  0  0  0  0  0  0
    1.5967   -5.5955    0.0000 C   0  0  0  0  0  0  0  0  0  0  0  0
    3.0681   -5.8869    0.0000 C   0  0  0  0  0  0  0  0  0  0  0  0
    4.0561   -4.7582    0.0000 C   0  0  0  0  0  0  0  0  0  0  0  0
    3.5728   -3.3383    0.0000 C   0  0  0  0  0  0  0  0  0  0  0  0
  1  2  1  0
  2  3  1  0
  3  4  1  0
  4  5  1  0
  5  6  1  0
  6  7  2  0
  7  8  1  0
  8  9  2  0
  9 10  1  0
 10 11  2  0
  4 12  1  0
 12 13  1  0
 13 14  2  0
 14 15  1  0
 15 16  2  0
 16 17  1  0
 17 18  2  0
  3 19  1  0
 19 20  1  0
 20 21  1  0
 21 22  2  0
 22 23  1  0
 23 24  2  0
 24 25  1  0
 25 26  2  0
 19 27  1  0
 27 28  1  0
 28 29  2  0
 29 30  1  0
 30 31  2  0
 31 32  1  0
 32 33  2  0
 11  6  1  0
 18 13  1  0
 26 21  1  0
 33 28  1  0
M  END
>  <linear_selectivity>  (1020) 
67

>  <denticity>  (1020) 
2

>  <ligand_class>  (1020) 
diphosphite

$$$$
diphosphite-C3_130C_hexane
     RDKit          2D

 33 36  0  0  0  0  0  0  0  0999 V2000
   -2.4629   -0.0791    0.0000 C   0  0  0  0  0  0  0  0  0  0  0  0
   -1.8083    0.3758    0.0000 C   0  0  0  0  0  0  0  0  0  0  0  0
   -0.3369    0.0844    0.0000 C   0  0  0  0  0  0  0  0  0  0  0  0
    0.6512    1.2130    0.0000 P   0  0  0  0  0  0  0  0  0  0  0  0
    2.1226    0.9217    0.0000 O   0  0  0  0  0  0  0  0  0  0  0  0
    3.1106    2.0503    0.0000 C   0  0  0  0  0  0  0  0  0  0  0  0
    4.5821    1.7589    0.0000 C   0  0  0  0  0  0  0  0  0  0  0  0
    5.5701    2.8875    0.0000 C   0  0  0  0  0  0  0  0  0  0  0  0
    5.0867    4.3075    0.0000 C   0  0  0  0  0  0  0  0  0  0  0  0
    3.6153    4.5989    0.0000 C   0  0  0  0  0  0  0  0  0  0  0  0
    2.6273    3.4703    0.0000 C   0  0  0  0  0  0  0  0  0  0  0  0
    0.1678    2.6330    0.0000 O   0  0  0  0  0  0  0  0  0  0  0  0
   -1.3036    2.9244    0.0000 C   0  0  0  0  0  0  0  0  0  0  0  0
   -1.7870    4.3444    0.0000 C   0  0  0  0  0  0  0  0  0  0  0  0
   -3.2585    4.6357    0.0000 C   0  0  0  0  0  0  0  0  0  0  0  0
   -4.2465    3.5071    0.0000 C   0  0  0  0  0  0  0  0  0  0  0  0
   -3.7631    2.0871    0.0000 C   0  0  0  0  0  0  0  0  0  0  0  0
   -2.2917    1.7958    0.0000 C   0  0  0  0  0  0  0  0  0  0  0  0
    0.1465   -1.3356    0.0000 P   0  0  0  0  0  0  0  0  0  0  0  0
   -0.8415   -2.4642    0.0000 O   0  0  0  0  0  0  0  0  0  0  0  0
   -2.3130   -2.1728    0.0000 C   0  0  0  0  0  0  0  0  0  0  0  0
   -3.3010   -3.3014    0.0000 C   0  0  0  0  0  0  0  0  0  0  0  0
   -4.7724   -3.0101    0.0000 C   0  0  0  0  0  0  0  0  0  0  0  0
   -5.2558   -1.5901    0.0000 C   0  0  0  0  0  0  0  0  0  0  0  0
   -4.2678   -0.4615    0.0000 C   0  0  0  0  0  0  0  0  0  0  0  0
   -2.7963   -0.7528    0.0000 C   0  0  0  0  0  0  0  0  0  0  0  0
    1.6179   -1.6269    0.0000 O   0  0  0  0  0  0  0  0  0  0  0  0
    2.1013   -3.0469    0.0000 C   0  0  0  0  0  0  0  0  0  0  0  0
    1.1133   -4.1755    0.0000 C   0  0  0  0  0  0  0  0  0  0  0  0
    1.5967   -5.5955    0.0000 C   0  0  0  0  0  0  0  0  0  0  0  0
    3.0681   -5.8869    0.0000 C   0  0  0  0  0  0  0  0  0  0  0  0
    4.0561   -4.7582    0.0000 C   0  0  0  0  0  0  0  0  0  0  0  0
    3.5728   -3.3383    0.0000 C   0  0  0  0  0  0  0  0  0  0  0  0
  1  2  1  0
  2  3  1  0
  3  4  1  0
  4  5  1  0
  5  6  1  0
  6  7  2  0
  7  8  1  0
  8  9  2  0
  9 10  1  0
 10 11  2  0
  4 12  1  0
 12 13  1  0
 13 14  2  0
 14 15  1  0
 15 16  2  0
 16 17  1  0
 17 18  2  0
  3 19  1  0
 19 20  1  0
 20 21  1  0
 21 22  2  0
 22 23  1  0
 23 24  2  0
 24 25  1  0
 25 26  2  0
 19 27  1  0
 27 28  1  0
 28 29  2  0
 29 30  1  0
 30 31  2  0
 31 32  1  0
 32 33  2  0
 11  6  1  0
 18 13  1  0
 26 21  1  0
 33 28  1  0
M  END
>  <linear_selectivity>  (1021) 
78

>  <denticity>  (1021) 
2

>  <ligand_class>  (1021) 
diphosphite

$$$$
diphosphite-C3_130C_benzene
     RDKit          2D

 33 36  0  0  0  0  0  0  0  0999 V2000
   -2.4629   -0.0791    0.0000 C   0  0  0  0  0  0  0  0  0  0  0  0
   -1.8083    0.3758    0.0000 C   0  0  0  0  0  0  0  0  0  0  0  0
   -0.3369    0.0844    0.0000 C   0  0  0  0  0  0  0  0  0  0  0  0
    0.6512    1.2130    0.0000 P   0  0  0  0  0  0  0  0  0  0  0  0
    2.1226    0.9217    0.0000 O   0  0  0  0  0  0  0  0  0  0  0  0
    3.1106    2.0503    0.0000 C   0  0  0  0  0  0  0  0  0  0  0  0
    4.5821    1.7589    0.0000 C   0  0  0  0  0  0  0  0  0  0  0  0
    5.5701    2.8875    0.0000 C   0  0  0  0  0  0  0  0  0  0  0  0
    5.0867    4.3075    0.0000 C   0  0  0  0  0  0  0  0  0  0  0  0
    3.6153    4.5989    0.0000 C   0  0  0  0  0  0  0  0  0  0  0  0
    2.6273    3.4703    0.0000 C   0  0  0  0  0  0  0  0  0  0  0  0
    0.1678    2.6330    0.0000 O   0  0  0  0  0  0  0  0  0  0  0  0
   -1.3036    2.9244    0.0000 C   0  0  0  0  0  0  0  0  0  0  0  0
   -1.7870    4.3444    0.0000 C   0  0  0  0  0  0  0  0  0  0  0  0
   -3.2585    4.6357    0.0000 C   0  0  0  0  0  0  0  0  0  0  0  0
   -4.2465    3.5071    0.0000 C   0  0  0  0  0  0  0  0  0  0  0  0
   -3.7631    2.0871    0.0000 C   0  0  0  0  0  0  0  0  0  0  0  0
   -2.2917    1.7958    0.0000 C   0  0  0  0  0  0  0  0  0  0  0  0
    0.1465   -1.3356    0.0000 P   0  0  0  0  0  0  0  0  0  0  0  0
   -0.8415   -2.4642    0.0000 O   0  0  0  0  0  0  0  0  0  0  0  0
   -2.3130   -2.1728    0.0000 C   0  0  0  0  0  0  0  0  0  0  0  0
   -3.3010   -3.3014    0.0000 C   0  0  0  0  0  0  0  0  0  0  0  0
   -4.7724   -3.0101    0.0000 C   0  0  0  0  0  0  0  0  0  0  0  0
   -5.2558   -1.5901    0.0000 C   0  0  0  0  0  0  0  0  0  0  0  0
   -4.2678   -0.4615    0.0000 C   0  0  0  0  0  0  0  0  0  0  0  0
   -2.7963   -0.7528    0.0000 C   0  0  0  0  0  0  0  0  0  0  0  0
    1.6179   -1.6269    0.0000 O   0  0  0  0  0  0  0  0  0  0  0  0
    2.1013   -3.0469    0.0000 C   0  0  0  0  0  0  0  0  0  0  0  0
    1.1133   -4.1755    0.0000 C   0  0  0  0  0  0  0  0  0  0  0  0
    1.5967   -5.5955    0.0000 C   0  0  0  0  0  0  0  0  0  0  0  0
    3.0681   -5.8869    0.0000 C   0  0  0  0  0  0  0  0  0  0  0  0
    4.0561   -4.7582    0.0000 C   0  0  0  0  0  0  0  0  0  0  0  0
    3.5728   -3.3383    0.0000 C   0  0  0  0  0  0  0  0  0  0  0  0
  1  2  1  0
  2  3  1  0
  3  4  1  0
  4  5  1  0
  5  6  1  0
  6  7  2  0
  7  8  1  0
  8  9  2  0
  9 10  1  0
 10 11  2  0
  4 12  1  0
 12 13  1  0
 13 14  2  0
 14 15  1  0
 15 16  2  0
 16 17  1  0
 17 18  2  0
  3 19  1  0
 19 20  1  0
 20 21  1  0
 21 22  2  0
 22 23  1  0
 23 24  2  0
 24 25  1  0
 25 26  2  0
 19 27  1  0
 27 28  1  0
 28 29  2  0
 29 30  1  0
 30 31  2  0
 31 32  1  0
 32 33  2  0
 11  6  1  0
 18 13  1  0
 26 21  1  0
 33 28  1  0
M  END
>  <linear_selectivity>  (1022) 
70

>  <denticity>  (1022) 
2

>  <ligand_class>  (1022) 
diphosphite

$$$$
diphosphite-C3_130C_xylene
     RDKit          2D

 33 36  0  0  0  0  0  0  0  0999 V2000
   -2.4629   -0.0791    0.0000 C   0  0  0  0  0  0  0  0  0  0  0  0
   -1.8083    0.3758    0.0000 C   0  0  0  0  0  0  0  0  0  0  0  0
   -0.3369    0.0844    0.0000 C   0  0  0  0  0  0  0  0  0  0  0  0
    0.6512    1.2130    0.0000 P   0  0  0  0  0  0  0  0  0  0  0  0
    2.1226    0.9217    0.0000 O   0  0  0  0  0  0  0  0  0  0  0  0
    3.1106    2.0503    0.0000 C   0  0  0  0  0  0  0  0  0  0  0  0
    4.5821    1.7589    0.0000 C   0  0  0  0  0  0  0  0  0  0  0  0
    5.5701    2.8875    0.0000 C   0  0  0  0  0  0  0  0  0  0  0  0
    5.0867    4.3075    0.0000 C   0  0  0  0  0  0  0  0  0  0  0  0
    3.6153    4.5989    0.0000 C   0  0  0  0  0  0  0  0  0  0  0  0
    2.6273    3.4703    0.0000 C   0  0  0  0  0  0  0  0  0  0  0  0
    0.1678    2.6330    0.0000 O   0  0  0  0  0  0  0  0  0  0  0  0
   -1.3036    2.9244    0.0000 C   0  0  0  0  0  0  0  0  0  0  0  0
   -1.7870    4.3444    0.0000 C   0  0  0  0  0  0  0  0  0  0  0  0
   -3.2585    4.6357    0.0000 C   0  0  0  0  0  0  0  0  0  0  0  0
   -4.2465    3.5071    0.0000 C   0  0  0  0  0  0  0  0  0  0  0  0
   -3.7631    2.0871    0.0000 C   0  0  0  0  0  0  0  0  0  0  0  0
   -2.2917    1.7958    0.0000 C   0  0  0  0  0  0  0  0  0  0  0  0
    0.1465   -1.3356    0.0000 P   0  0  0  0  0  0  0  0  0  0  0  0
   -0.8415   -2.4642    0.0000 O   0  0  0  0  0  0  0  0  0  0  0  0
   -2.3130   -2.1728    0.0000 C   0  0  0  0  0  0  0  0  0  0  0  0
   -3.3010   -3.3014    0.0000 C   0  0  0  0  0  0  0  0  0  0  0  0
   -4.7724   -3.0101    0.0000 C   0  0  0  0  0  0  0  0  0  0  0  0
   -5.2558   -1.5901    0.0000 C   0  0  0  0  0  0  0  0  0  0  0  0
   -4.2678   -0.4615    0.0000 C   0  0  0  0  0  0  0  0  0  0  0  0
   -2.7963   -0.7528    0.0000 C   0  0  0  0  0  0  0  0  0  0  0  0
    1.6179   -1.6269    0.0000 O   0  0  0  0  0  0  0  0  0  0  0  0
    2.1013   -3.0469    0.0000 C   0  0  0  0  0  0  0  0  0  0  0  0
    1.1133   -4.1755    0.0000 C   0  0  0  0  0  0  0  0  0  0  0  0
    1.5967   -5.5955    0.0000 C   0  0  0  0  0  0  0  0  0  0  0  0
    3.0681   -5.8869    0.0000 C   0  0  0  0  0  0  0  0  0  0  0  0
    4.0561   -4.7582    0.0000 C   0  0  0  0  0  0  0  0  0  0  0  0
    3.5728   -3.3383    0.0000 C   0  0  0  0  0  0  0  0  0  0  0  0
  1  2  1  0
  2  3  1  0
  3  4  1  0
  4  5  1  0
  5  6  1  0
  6  7  2  0
  7  8  1  0
  8  9  2  0
  9 10  1  0
 10 11  2  0
  4 12  1  0
 12 13  1  0
 13 14  2  0
 14 15  1  0
 15 16  2  0
 16 17  1  0
 17 18  2  0
  3 19  1  0
 19 20  1  0
 20 21  1  0
 21 22  2  0
 22 23  1  0
 23 24  2  0
 24 25  1  0
 25 26  2  0
 19 27  1  0
 27 28  1  0
 28 29  2  0
 29 30  1  0
 30 31  2  0
 31 32  1  0
 32 33  2  0
 11  6  1  0
 18 13  1  0
 26 21  1  0
 33 28  1  0
M  END
>  <linear_selectivity>  (1023) 
76

>  <denticity>  (1023) 
2

>  <ligand_class>  (1023) 
diphosphite

$$$$
diphosphite-C4
     RDKit          2D

 34 37  0  0  0  0  0  0  0  0999 V2000
   -3.4224   -0.1492    0.0000 C   0  0  0  0  0  0  0  0  0  0  0  0
   -2.7622    0.2976    0.0000 C   0  0  0  0  0  0  0  0  0  0  0  0
   -1.6117   -0.6648    0.0000 C   0  0  0  0  0  0  0  0  0  0  0  0
   -0.2029   -0.1495    0.0000 C   0  0  0  0  0  0  0  0  0  0  0  0
    0.0552    1.3281    0.0000 P   0  0  0  0  0  0  0  0  0  0  0  0
    1.4640    1.8433    0.0000 O   0  0  0  0  0  0  0  0  0  0  0  0
    1.7222    3.3209    0.0000 C   0  0  0  0  0  0  0  0  0  0  0  0
    3.1309    3.8361    0.0000 C   0  0  0  0  0  0  0  0  0  0  0  0
    3.3891    5.3137    0.0000 C   0  0  0  0  0  0  0  0  0  0  0  0
    2.2385    6.2761    0.0000 C   0  0  0  0  0  0  0  0  0  0  0  0
    0.8298    5.7609    0.0000 C   0  0  0  0  0  0  0  0  0  0  0  0
    0.5716    4.2833    0.0000 C   0  0  0  0  0  0  0  0  0  0  0  0
   -1.0953    2.2905    0.0000 O   0  0  0  0  0  0  0  0  0  0  0  0
   -2.5041    1.7752    0.0000 C   0  0  0  0  0  0  0  0  0  0  0  0
   -3.6546    2.7376    0.0000 C   0  0  0  0  0  0  0  0  0  0  0  0
   -5.0634    2.2224    0.0000 C   0  0  0  0  0  0  0  0  0  0  0  0
   -5.3215    0.7448    0.0000 C   0  0  0  0  0  0  0  0  0  0  0  0
   -4.1710   -0.2176    0.0000 C   0  0  0  0  0  0  0  0  0  0  0  0
   -2.7622    0.2976    0.0000 C   0  0  0  0  0  0  0  0  0  0  0  0
    0.9476   -1.1119    0.0000 P   0  0  0  0  0  0  0  0  0  0  0  0
    0.6894   -2.5896    0.0000 O   0  0  0  0  0  0  0  0  0  0  0  0
   -0.7193   -3.1048    0.0000 C   0  0  0  0  0  0  0  0  0  0  0  0
   -0.9775   -4.5824    0.0000 C   0  0  0  0  0  0  0  0  0  0  0  0
   -2.3862   -5.0976    0.0000 C   0  0  0  0  0  0  0  0  0  0  0  0
   -3.5368   -4.1352    0.0000 C   0  0  0  0  0  0  0  0  0  0  0  0
   -3.2786   -2.6576    0.0000 C   0  0  0  0  0  0  0  0  0  0  0  0
   -1.8699   -2.1424    0.0000 C   0  0  0  0  0  0  0  0  0  0  0  0
    2.3564   -0.5967    0.0000 O   0  0  0  0  0  0  0  0  0  0  0  0
    3.5069   -1.5591    0.0000 C   0  0  0  0  0  0  0  0  0  0  0  0
    3.2487   -3.0367    0.0000 C   0  0  0  0  0  0  0  0  0  0  0  0
    4.3993   -3.9991    0.0000 C   0  0  0  0  0  0  0  0  0  0  0  0
    5.8081   -3.4839    0.0000 C   0  0  0  0  0  0  0  0  0  0  0  0
    6.0662   -2.0063    0.0000 C   0  0  0  0  0  0  0  0  0  0  0  0
    4.9157   -1.0439    0.0000 C   0  0  0  0  0  0  0  0  0  0  0  0
  1  2  1  0
  2  3  1  0
  3  4  1  0
  4  5  1  0
  5  6  1  0
  6  7  1  0
  7  8  2  0
  8  9  1  0
  9 10  2  0
 10 11  1  0
 11 12  2  0
  5 13  1  0
 13 14  1  0
 14 15  2  0
 15 16  1  0
 16 17  2  0
 17 18  1  0
 18 19  2  0
  4 20  1  0
 20 21  1  0
 21 22  1  0
 22 23  2  0
 23 24  1  0
 24 25  2  0
 25 26  1  0
 26 27  2  0
 20 28  1  0
 28 29  1  0
 29 30  2  0
 30 31  1  0
 31 32  2  0
 32 33  1  0
 33 34  2  0
 12  7  1  0
 19 14  1  0
 27 22  1  0
 34 29  1  0
M  END
>  <linear_selectivity>  (1024) 
85

>  <denticity>  (1024) 
2

>  <ligand_class>  (1024) 
diphosphite

$$$$
diphosphite-C4_70C_toluene
     RDKit          2D

 34 37  0  0  0  0  0  0  0  0999 V2000
   -3.4224   -0.1492    0.0000 C   0  0  0  0  0  0  0  0  0  0  0  0
   -2.7622    0.2976    0.0000 C   0  0  0  0  0  0  0  0  0  0  0  0
   -1.6117   -0.6648    0.0000 C   0  0  0  0  0  0  0  0  0  0  0  0
   -0.2029   -0.1495    0.0000 C   0  0  0  0  0  0  0  0  0  0  0  0
    0.0552    1.3281    0.0000 P   0  0  0  0  0  0  0  0  0  0  0  0
    1.4640    1.8433    0.0000 O   0  0  0  0  0  0  0  0  0  0  0  0
    1.7222    3.3209    0.0000 C   0  0  0  0  0  0  0  0  0  0  0  0
    3.1309    3.8361    0.0000 C   0  0  0  0  0  0  0  0  0  0  0  0
    3.3891    5.3137    0.0000 C   0  0  0  0  0  0  0  0  0  0  0  0
    2.2385    6.2761    0.0000 C   0  0  0  0  0  0  0  0  0  0  0  0
    0.8298    5.7609    0.0000 C   0  0  0  0  0  0  0  0  0  0  0  0
    0.5716    4.2833    0.0000 C   0  0  0  0  0  0  0  0  0  0  0  0
   -1.0953    2.2905    0.0000 O   0  0  0  0  0  0  0  0  0  0  0  0
   -2.5041    1.7752    0.0000 C   0  0  0  0  0  0  0  0  0  0  0  0
   -3.6546    2.7376    0.0000 C   0  0  0  0  0  0  0  0  0  0  0  0
   -5.0634    2.2224    0.0000 C   0  0  0  0  0  0  0  0  0  0  0  0
   -5.3215    0.7448    0.0000 C   0  0  0  0  0  0  0  0  0  0  0  0
   -4.1710   -0.2176    0.0000 C   0  0  0  0  0  0  0  0  0  0  0  0
   -2.7622    0.2976    0.0000 C   0  0  0  0  0  0  0  0  0  0  0  0
    0.9476   -1.1119    0.0000 P   0  0  0  0  0  0  0  0  0  0  0  0
    0.6894   -2.5896    0.0000 O   0  0  0  0  0  0  0  0  0  0  0  0
   -0.7193   -3.1048    0.0000 C   0  0  0  0  0  0  0  0  0  0  0  0
   -0.9775   -4.5824    0.0000 C   0  0  0  0  0  0  0  0  0  0  0  0
   -2.3862   -5.0976    0.0000 C   0  0  0  0  0  0  0  0  0  0  0  0
   -3.5368   -4.1352    0.0000 C   0  0  0  0  0  0  0  0  0  0  0  0
   -3.2786   -2.6576    0.0000 C   0  0  0  0  0  0  0  0  0  0  0  0
   -1.8699   -2.1424    0.0000 C   0  0  0  0  0  0  0  0  0  0  0  0
    2.3564   -0.5967    0.0000 O   0  0  0  0  0  0  0  0  0  0  0  0
    3.5069   -1.5591    0.0000 C   0  0  0  0  0  0  0  0  0  0  0  0
    3.2487   -3.0367    0.0000 C   0  0  0  0  0  0  0  0  0  0  0  0
    4.3993   -3.9991    0.0000 C   0  0  0  0  0  0  0  0  0  0  0  0
    5.8081   -3.4839    0.0000 C   0  0  0  0  0  0  0  0  0  0  0  0
    6.0662   -2.0063    0.0000 C   0  0  0  0  0  0  0  0  0  0  0  0
    4.9157   -1.0439    0.0000 C   0  0  0  0  0  0  0  0  0  0  0  0
  1  2  1  0
  2  3  1  0
  3  4  1  0
  4  5  1  0
  5  6  1  0
  6  7  1  0
  7  8  2  0
  8  9  1  0
  9 10  2  0
 10 11  1  0
 11 12  2  0
  5 13  1  0
 13 14  1  0
 14 15  2  0
 15 16  1  0
 16 17  2  0
 17 18  1  0
 18 19  2  0
  4 20  1  0
 20 21  1  0
 21 22  1  0
 22 23  2  0
 23 24  1  0
 24 25  2  0
 25 26  1  0
 26 27  2  0
 20 28  1  0
 28 29  1  0
 29 30  2  0
 30 31  1  0
 31 32  2  0
 32 33  1  0
 33 34  2  0
 12  7  1  0
 19 14  1  0
 27 22  1  0
 34 29  1  0
M  END
>  <linear_selectivity>  (1025) 
95

>  <denticity>  (1025) 
2

>  <ligand_class>  (1025) 
diphosphite

$$$$
diphosphite-C4_70C_THF
     RDKit          2D

 34 37  0  0  0  0  0  0  0  0999 V2000
   -3.4224   -0.1492    0.0000 C   0  0  0  0  0  0  0  0  0  0  0  0
   -2.7622    0.2976    0.0000 C   0  0  0  0  0  0  0  0  0  0  0  0
   -1.6117   -0.6648    0.0000 C   0  0  0  0  0  0  0  0  0  0  0  0
   -0.2029   -0.1495    0.0000 C   0  0  0  0  0  0  0  0  0  0  0  0
    0.0552    1.3281    0.0000 P   0  0  0  0  0  0  0  0  0  0  0  0
    1.4640    1.8433    0.0000 O   0  0  0  0  0  0  0  0  0  0  0  0
    1.7222    3.3209    0.0000 C   0  0  0  0  0  0  0  0  0  0  0  0
    3.1309    3.8361    0.0000 C   0  0  0  0  0  0  0  0  0  0  0  0
    3.3891    5.3137    0.0000 C   0  0  0  0  0  0  0  0  0  0  0  0
    2.2385    6.2761    0.0000 C   0  0  0  0  0  0  0  0  0  0  0  0
    0.8298    5.7609    0.0000 C   0  0  0  0  0  0  0  0  0  0  0  0
    0.5716    4.2833    0.0000 C   0  0  0  0  0  0  0  0  0  0  0  0
   -1.0953    2.2905    0.0000 O   0  0  0  0  0  0  0  0  0  0  0  0
   -2.5041    1.7752    0.0000 C   0  0  0  0  0  0  0  0  0  0  0  0
   -3.6546    2.7376    0.0000 C   0  0  0  0  0  0  0  0  0  0  0  0
   -5.0634    2.2224    0.0000 C   0  0  0  0  0  0  0  0  0  0  0  0
   -5.3215    0.7448    0.0000 C   0  0  0  0  0  0  0  0  0  0  0  0
   -4.1710   -0.2176    0.0000 C   0  0  0  0  0  0  0  0  0  0  0  0
   -2.7622    0.2976    0.0000 C   0  0  0  0  0  0  0  0  0  0  0  0
    0.9476   -1.1119    0.0000 P   0  0  0  0  0  0  0  0  0  0  0  0
    0.6894   -2.5896    0.0000 O   0  0  0  0  0  0  0  0  0  0  0  0
   -0.7193   -3.1048    0.0000 C   0  0  0  0  0  0  0  0  0  0  0  0
   -0.9775   -4.5824    0.0000 C   0  0  0  0  0  0  0  0  0  0  0  0
   -2.3862   -5.0976    0.0000 C   0  0  0  0  0  0  0  0  0  0  0  0
   -3.5368   -4.1352    0.0000 C   0  0  0  0  0  0  0  0  0  0  0  0
   -3.2786   -2.6576    0.0000 C   0  0  0  0  0  0  0  0  0  0  0  0
   -1.8699   -2.1424    0.0000 C   0  0  0  0  0  0  0  0  0  0  0  0
    2.3564   -0.5967    0.0000 O   0  0  0  0  0  0  0  0  0  0  0  0
    3.5069   -1.5591    0.0000 C   0  0  0  0  0  0  0  0  0  0  0  0
    3.2487   -3.0367    0.0000 C   0  0  0  0  0  0  0  0  0  0  0  0
    4.3993   -3.9991    0.0000 C   0  0  0  0  0  0  0  0  0  0  0  0
    5.8081   -3.4839    0.0000 C   0  0  0  0  0  0  0  0  0  0  0  0
    6.0662   -2.0063    0.0000 C   0  0  0  0  0  0  0  0  0  0  0  0
    4.9157   -1.0439    0.0000 C   0  0  0  0  0  0  0  0  0  0  0  0
  1  2  1  0
  2  3  1  0
  3  4  1  0
  4  5  1  0
  5  6  1  0
  6  7  1  0
  7  8  2  0
  8  9  1  0
  9 10  2  0
 10 11  1  0
 11 12  2  0
  5 13  1  0
 13 14  1  0
 14 15  2  0
 15 16  1  0
 16 17  2  0
 17 18  1  0
 18 19  2  0
  4 20  1  0
 20 21  1  0
 21 22  1  0
 22 23  2  0
 23 24  1  0
 24 25  2  0
 25 26  1  0
 26 27  2  0
 20 28  1  0
 28 29  1  0
 29 30  2  0
 30 31  1  0
 31 32  2  0
 32 33  1  0
 33 34  2  0
 12  7  1  0
 19 14  1  0
 27 22  1  0
 34 29  1  0
M  END
>  <linear_selectivity>  (1026) 
89

>  <denticity>  (1026) 
2

>  <ligand_class>  (1026) 
diphosphite

$$$$
diphosphite-C4_70C_benzene
     RDKit          2D

 34 37  0  0  0  0  0  0  0  0999 V2000
   -3.4224   -0.1492    0.0000 C   0  0  0  0  0  0  0  0  0  0  0  0
   -2.7622    0.2976    0.0000 C   0  0  0  0  0  0  0  0  0  0  0  0
   -1.6117   -0.6648    0.0000 C   0  0  0  0  0  0  0  0  0  0  0  0
   -0.2029   -0.1495    0.0000 C   0  0  0  0  0  0  0  0  0  0  0  0
    0.0552    1.3281    0.0000 P   0  0  0  0  0  0  0  0  0  0  0  0
    1.4640    1.8433    0.0000 O   0  0  0  0  0  0  0  0  0  0  0  0
    1.7222    3.3209    0.0000 C   0  0  0  0  0  0  0  0  0  0  0  0
    3.1309    3.8361    0.0000 C   0  0  0  0  0  0  0  0  0  0  0  0
    3.3891    5.3137    0.0000 C   0  0  0  0  0  0  0  0  0  0  0  0
    2.2385    6.2761    0.0000 C   0  0  0  0  0  0  0  0  0  0  0  0
    0.8298    5.7609    0.0000 C   0  0  0  0  0  0  0  0  0  0  0  0
    0.5716    4.2833    0.0000 C   0  0  0  0  0  0  0  0  0  0  0  0
   -1.0953    2.2905    0.0000 O   0  0  0  0  0  0  0  0  0  0  0  0
   -2.5041    1.7752    0.0000 C   0  0  0  0  0  0  0  0  0  0  0  0
   -3.6546    2.7376    0.0000 C   0  0  0  0  0  0  0  0  0  0  0  0
   -5.0634    2.2224    0.0000 C   0  0  0  0  0  0  0  0  0  0  0  0
   -5.3215    0.7448    0.0000 C   0  0  0  0  0  0  0  0  0  0  0  0
   -4.1710   -0.2176    0.0000 C   0  0  0  0  0  0  0  0  0  0  0  0
   -2.7622    0.2976    0.0000 C   0  0  0  0  0  0  0  0  0  0  0  0
    0.9476   -1.1119    0.0000 P   0  0  0  0  0  0  0  0  0  0  0  0
    0.6894   -2.5896    0.0000 O   0  0  0  0  0  0  0  0  0  0  0  0
   -0.7193   -3.1048    0.0000 C   0  0  0  0  0  0  0  0  0  0  0  0
   -0.9775   -4.5824    0.0000 C   0  0  0  0  0  0  0  0  0  0  0  0
   -2.3862   -5.0976    0.0000 C   0  0  0  0  0  0  0  0  0  0  0  0
   -3.5368   -4.1352    0.0000 C   0  0  0  0  0  0  0  0  0  0  0  0
   -3.2786   -2.6576    0.0000 C   0  0  0  0  0  0  0  0  0  0  0  0
   -1.8699   -2.1424    0.0000 C   0  0  0  0  0  0  0  0  0  0  0  0
    2.3564   -0.5967    0.0000 O   0  0  0  0  0  0  0  0  0  0  0  0
    3.5069   -1.5591    0.0000 C   0  0  0  0  0  0  0  0  0  0  0  0
    3.2487   -3.0367    0.0000 C   0  0  0  0  0  0  0  0  0  0  0  0
    4.3993   -3.9991    0.0000 C   0  0  0  0  0  0  0  0  0  0  0  0
    5.8081   -3.4839    0.0000 C   0  0  0  0  0  0  0  0  0  0  0  0
    6.0662   -2.0063    0.0000 C   0  0  0  0  0  0  0  0  0  0  0  0
    4.9157   -1.0439    0.0000 C   0  0  0  0  0  0  0  0  0  0  0  0
  1  2  1  0
  2  3  1  0
  3  4  1  0
  4  5  1  0
  5  6  1  0
  6  7  1  0
  7  8  2  0
  8  9  1  0
  9 10  2  0
 10 11  1  0
 11 12  2  0
  5 13  1  0
 13 14  1  0
 14 15  2  0
 15 16  1  0
 16 17  2  0
 17 18  1  0
 18 19  2  0
  4 20  1  0
 20 21  1  0
 21 22  1  0
 22 23  2  0
 23 24  1  0
 24 25  2  0
 25 26  1  0
 26 27  2  0
 20 28  1  0
 28 29  1  0
 29 30  2  0
 30 31  1  0
 31 32  2  0
 32 33  1  0
 33 34  2  0
 12  7  1  0
 19 14  1  0
 27 22  1  0
 34 29  1  0
M  END
>  <linear_selectivity>  (1027) 
97

>  <denticity>  (1027) 
2

>  <ligand_class>  (1027) 
diphosphite

$$$$
diphosphite-C4_80C_toluene
     RDKit          2D

 34 37  0  0  0  0  0  0  0  0999 V2000
   -3.4224   -0.1492    0.0000 C   0  0  0  0  0  0  0  0  0  0  0  0
   -2.7622    0.2976    0.0000 C   0  0  0  0  0  0  0  0  0  0  0  0
   -1.6117   -0.6648    0.0000 C   0  0  0  0  0  0  0  0  0  0  0  0
   -0.2029   -0.1495    0.0000 C   0  0  0  0  0  0  0  0  0  0  0  0
    0.0552    1.3281    0.0000 P   0  0  0  0  0  0  0  0  0  0  0  0
    1.4640    1.8433    0.0000 O   0  0  0  0  0  0  0  0  0  0  0  0
    1.7222    3.3209    0.0000 C   0  0  0  0  0  0  0  0  0  0  0  0
    3.1309    3.8361    0.0000 C   0  0  0  0  0  0  0  0  0  0  0  0
    3.3891    5.3137    0.0000 C   0  0  0  0  0  0  0  0  0  0  0  0
    2.2385    6.2761    0.0000 C   0  0  0  0  0  0  0  0  0  0  0  0
    0.8298    5.7609    0.0000 C   0  0  0  0  0  0  0  0  0  0  0  0
    0.5716    4.2833    0.0000 C   0  0  0  0  0  0  0  0  0  0  0  0
   -1.0953    2.2905    0.0000 O   0  0  0  0  0  0  0  0  0  0  0  0
   -2.5041    1.7752    0.0000 C   0  0  0  0  0  0  0  0  0  0  0  0
   -3.6546    2.7376    0.0000 C   0  0  0  0  0  0  0  0  0  0  0  0
   -5.0634    2.2224    0.0000 C   0  0  0  0  0  0  0  0  0  0  0  0
   -5.3215    0.7448    0.0000 C   0  0  0  0  0  0  0  0  0  0  0  0
   -4.1710   -0.2176    0.0000 C   0  0  0  0  0  0  0  0  0  0  0  0
   -2.7622    0.2976    0.0000 C   0  0  0  0  0  0  0  0  0  0  0  0
    0.9476   -1.1119    0.0000 P   0  0  0  0  0  0  0  0  0  0  0  0
    0.6894   -2.5896    0.0000 O   0  0  0  0  0  0  0  0  0  0  0  0
   -0.7193   -3.1048    0.0000 C   0  0  0  0  0  0  0  0  0  0  0  0
   -0.9775   -4.5824    0.0000 C   0  0  0  0  0  0  0  0  0  0  0  0
   -2.3862   -5.0976    0.0000 C   0  0  0  0  0  0  0  0  0  0  0  0
   -3.5368   -4.1352    0.0000 C   0  0  0  0  0  0  0  0  0  0  0  0
   -3.2786   -2.6576    0.0000 C   0  0  0  0  0  0  0  0  0  0  0  0
   -1.8699   -2.1424    0.0000 C   0  0  0  0  0  0  0  0  0  0  0  0
    2.3564   -0.5967    0.0000 O   0  0  0  0  0  0  0  0  0  0  0  0
    3.5069   -1.5591    0.0000 C   0  0  0  0  0  0  0  0  0  0  0  0
    3.2487   -3.0367    0.0000 C   0  0  0  0  0  0  0  0  0  0  0  0
    4.3993   -3.9991    0.0000 C   0  0  0  0  0  0  0  0  0  0  0  0
    5.8081   -3.4839    0.0000 C   0  0  0  0  0  0  0  0  0  0  0  0
    6.0662   -2.0063    0.0000 C   0  0  0  0  0  0  0  0  0  0  0  0
    4.9157   -1.0439    0.0000 C   0  0  0  0  0  0  0  0  0  0  0  0
  1  2  1  0
  2  3  1  0
  3  4  1  0
  4  5  1  0
  5  6  1  0
  6  7  1  0
  7  8  2  0
  8  9  1  0
  9 10  2  0
 10 11  1  0
 11 12  2  0
  5 13  1  0
 13 14  1  0
 14 15  2  0
 15 16  1  0
 16 17  2  0
 17 18  1  0
 18 19  2  0
  4 20  1  0
 20 21  1  0
 21 22  1  0
 22 23  2  0
 23 24  1  0
 24 25  2  0
 25 26  1  0
 26 27  2  0
 20 28  1  0
 28 29  1  0
 29 30  2  0
 30 31  1  0
 31 32  2  0
 32 33  1  0
 33 34  2  0
 12  7  1  0
 19 14  1  0
 27 22  1  0
 34 29  1  0
M  END
>  <linear_selectivity>  (1028) 
87

>  <denticity>  (1028) 
2

>  <ligand_class>  (1028) 
diphosphite

$$$$
diphosphite-C4_80C_THF
     RDKit          2D

 34 37  0  0  0  0  0  0  0  0999 V2000
   -3.4224   -0.1492    0.0000 C   0  0  0  0  0  0  0  0  0  0  0  0
   -2.7622    0.2976    0.0000 C   0  0  0  0  0  0  0  0  0  0  0  0
   -1.6117   -0.6648    0.0000 C   0  0  0  0  0  0  0  0  0  0  0  0
   -0.2029   -0.1495    0.0000 C   0  0  0  0  0  0  0  0  0  0  0  0
    0.0552    1.3281    0.0000 P   0  0  0  0  0  0  0  0  0  0  0  0
    1.4640    1.8433    0.0000 O   0  0  0  0  0  0  0  0  0  0  0  0
    1.7222    3.3209    0.0000 C   0  0  0  0  0  0  0  0  0  0  0  0
    3.1309    3.8361    0.0000 C   0  0  0  0  0  0  0  0  0  0  0  0
    3.3891    5.3137    0.0000 C   0  0  0  0  0  0  0  0  0  0  0  0
    2.2385    6.2761    0.0000 C   0  0  0  0  0  0  0  0  0  0  0  0
    0.8298    5.7609    0.0000 C   0  0  0  0  0  0  0  0  0  0  0  0
    0.5716    4.2833    0.0000 C   0  0  0  0  0  0  0  0  0  0  0  0
   -1.0953    2.2905    0.0000 O   0  0  0  0  0  0  0  0  0  0  0  0
   -2.5041    1.7752    0.0000 C   0  0  0  0  0  0  0  0  0  0  0  0
   -3.6546    2.7376    0.0000 C   0  0  0  0  0  0  0  0  0  0  0  0
   -5.0634    2.2224    0.0000 C   0  0  0  0  0  0  0  0  0  0  0  0
   -5.3215    0.7448    0.0000 C   0  0  0  0  0  0  0  0  0  0  0  0
   -4.1710   -0.2176    0.0000 C   0  0  0  0  0  0  0  0  0  0  0  0
   -2.7622    0.2976    0.0000 C   0  0  0  0  0  0  0  0  0  0  0  0
    0.9476   -1.1119    0.0000 P   0  0  0  0  0  0  0  0  0  0  0  0
    0.6894   -2.5896    0.0000 O   0  0  0  0  0  0  0  0  0  0  0  0
   -0.7193   -3.1048    0.0000 C   0  0  0  0  0  0  0  0  0  0  0  0
   -0.9775   -4.5824    0.0000 C   0  0  0  0  0  0  0  0  0  0  0  0
   -2.3862   -5.0976    0.0000 C   0  0  0  0  0  0  0  0  0  0  0  0
   -3.5368   -4.1352    0.0000 C   0  0  0  0  0  0  0  0  0  0  0  0
   -3.2786   -2.6576    0.0000 C   0  0  0  0  0  0  0  0  0  0  0  0
   -1.8699   -2.1424    0.0000 C   0  0  0  0  0  0  0  0  0  0  0  0
    2.3564   -0.5967    0.0000 O   0  0  0  0  0  0  0  0  0  0  0  0
    3.5069   -1.5591    0.0000 C   0  0  0  0  0  0  0  0  0  0  0  0
    3.2487   -3.0367    0.0000 C   0  0  0  0  0  0  0  0  0  0  0  0
    4.3993   -3.9991    0.0000 C   0  0  0  0  0  0  0  0  0  0  0  0
    5.8081   -3.4839    0.0000 C   0  0  0  0  0  0  0  0  0  0  0  0
    6.0662   -2.0063    0.0000 C   0  0  0  0  0  0  0  0  0  0  0  0
    4.9157   -1.0439    0.0000 C   0  0  0  0  0  0  0  0  0  0  0  0
  1  2  1  0
  2  3  1  0
  3  4  1  0
  4  5  1  0
  5  6  1  0
  6  7  1  0
  7  8  2  0
  8  9  1  0
  9 10  2  0
 10 11  1  0
 11 12  2  0
  5 13  1  0
 13 14  1  0
 14 15  2  0
 15 16  1  0
 16 17  2  0
 17 18  1  0
 18 19  2  0
  4 20  1  0
 20 21  1  0
 21 22  1  0
 22 23  2  0
 23 24  1  0
 24 25  2  0
 25 26  1  0
 26 27  2  0
 20 28  1  0
 28 29  1  0
 29 30  2  0
 30 31  1  0
 31 32  2  0
 32 33  1  0
 33 34  2  0
 12  7  1  0
 19 14  1  0
 27 22  1  0
 34 29  1  0
M  END
>  <linear_selectivity>  (1029) 
85

>  <denticity>  (1029) 
2

>  <ligand_class>  (1029) 
diphosphite

$$$$
diphosphite-C4_80C_dioxane
     RDKit          2D

 34 37  0  0  0  0  0  0  0  0999 V2000
   -3.4224   -0.1492    0.0000 C   0  0  0  0  0  0  0  0  0  0  0  0
   -2.7622    0.2976    0.0000 C   0  0  0  0  0  0  0  0  0  0  0  0
   -1.6117   -0.6648    0.0000 C   0  0  0  0  0  0  0  0  0  0  0  0
   -0.2029   -0.1495    0.0000 C   0  0  0  0  0  0  0  0  0  0  0  0
    0.0552    1.3281    0.0000 P   0  0  0  0  0  0  0  0  0  0  0  0
    1.4640    1.8433    0.0000 O   0  0  0  0  0  0  0  0  0  0  0  0
    1.7222    3.3209    0.0000 C   0  0  0  0  0  0  0  0  0  0  0  0
    3.1309    3.8361    0.0000 C   0  0  0  0  0  0  0  0  0  0  0  0
    3.3891    5.3137    0.0000 C   0  0  0  0  0  0  0  0  0  0  0  0
    2.2385    6.2761    0.0000 C   0  0  0  0  0  0  0  0  0  0  0  0
    0.8298    5.7609    0.0000 C   0  0  0  0  0  0  0  0  0  0  0  0
    0.5716    4.2833    0.0000 C   0  0  0  0  0  0  0  0  0  0  0  0
   -1.0953    2.2905    0.0000 O   0  0  0  0  0  0  0  0  0  0  0  0
   -2.5041    1.7752    0.0000 C   0  0  0  0  0  0  0  0  0  0  0  0
   -3.6546    2.7376    0.0000 C   0  0  0  0  0  0  0  0  0  0  0  0
   -5.0634    2.2224    0.0000 C   0  0  0  0  0  0  0  0  0  0  0  0
   -5.3215    0.7448    0.0000 C   0  0  0  0  0  0  0  0  0  0  0  0
   -4.1710   -0.2176    0.0000 C   0  0  0  0  0  0  0  0  0  0  0  0
   -2.7622    0.2976    0.0000 C   0  0  0  0  0  0  0  0  0  0  0  0
    0.9476   -1.1119    0.0000 P   0  0  0  0  0  0  0  0  0  0  0  0
    0.6894   -2.5896    0.0000 O   0  0  0  0  0  0  0  0  0  0  0  0
   -0.7193   -3.1048    0.0000 C   0  0  0  0  0  0  0  0  0  0  0  0
   -0.9775   -4.5824    0.0000 C   0  0  0  0  0  0  0  0  0  0  0  0
   -2.3862   -5.0976    0.0000 C   0  0  0  0  0  0  0  0  0  0  0  0
   -3.5368   -4.1352    0.0000 C   0  0  0  0  0  0  0  0  0  0  0  0
   -3.2786   -2.6576    0.0000 C   0  0  0  0  0  0  0  0  0  0  0  0
   -1.8699   -2.1424    0.0000 C   0  0  0  0  0  0  0  0  0  0  0  0
    2.3564   -0.5967    0.0000 O   0  0  0  0  0  0  0  0  0  0  0  0
    3.5069   -1.5591    0.0000 C   0  0  0  0  0  0  0  0  0  0  0  0
    3.2487   -3.0367    0.0000 C   0  0  0  0  0  0  0  0  0  0  0  0
    4.3993   -3.9991    0.0000 C   0  0  0  0  0  0  0  0  0  0  0  0
    5.8081   -3.4839    0.0000 C   0  0  0  0  0  0  0  0  0  0  0  0
    6.0662   -2.0063    0.0000 C   0  0  0  0  0  0  0  0  0  0  0  0
    4.9157   -1.0439    0.0000 C   0  0  0  0  0  0  0  0  0  0  0  0
  1  2  1  0
  2  3  1  0
  3  4  1  0
  4  5  1  0
  5  6  1  0
  6  7  1  0
  7  8  2  0
  8  9  1  0
  9 10  2  0
 10 11  1  0
 11 12  2  0
  5 13  1  0
 13 14  1  0
 14 15  2  0
 15 16  1  0
 16 17  2  0
 17 18  1  0
 18 19  2  0
  4 20  1  0
 20 21  1  0
 21 22  1  0
 22 23  2  0
 23 24  1  0
 24 25  2  0
 25 26  1  0
 26 27  2  0
 20 28  1  0
 28 29  1  0
 29 30  2  0
 30 31  1  0
 31 32  2  0
 32 33  1  0
 33 34  2  0
 12  7  1  0
 19 14  1  0
 27 22  1  0
 34 29  1  0
M  END
>  <linear_selectivity>  (1030) 
92

>  <denticity>  (1030) 
2

>  <ligand_class>  (1030) 
diphosphite

$$$$
diphosphite-C4_80C_hexane
     RDKit          2D

 34 37  0  0  0  0  0  0  0  0999 V2000
   -3.4224   -0.1492    0.0000 C   0  0  0  0  0  0  0  0  0  0  0  0
   -2.7622    0.2976    0.0000 C   0  0  0  0  0  0  0  0  0  0  0  0
   -1.6117   -0.6648    0.0000 C   0  0  0  0  0  0  0  0  0  0  0  0
   -0.2029   -0.1495    0.0000 C   0  0  0  0  0  0  0  0  0  0  0  0
    0.0552    1.3281    0.0000 P   0  0  0  0  0  0  0  0  0  0  0  0
    1.4640    1.8433    0.0000 O   0  0  0  0  0  0  0  0  0  0  0  0
    1.7222    3.3209    0.0000 C   0  0  0  0  0  0  0  0  0  0  0  0
    3.1309    3.8361    0.0000 C   0  0  0  0  0  0  0  0  0  0  0  0
    3.3891    5.3137    0.0000 C   0  0  0  0  0  0  0  0  0  0  0  0
    2.2385    6.2761    0.0000 C   0  0  0  0  0  0  0  0  0  0  0  0
    0.8298    5.7609    0.0000 C   0  0  0  0  0  0  0  0  0  0  0  0
    0.5716    4.2833    0.0000 C   0  0  0  0  0  0  0  0  0  0  0  0
   -1.0953    2.2905    0.0000 O   0  0  0  0  0  0  0  0  0  0  0  0
   -2.5041    1.7752    0.0000 C   0  0  0  0  0  0  0  0  0  0  0  0
   -3.6546    2.7376    0.0000 C   0  0  0  0  0  0  0  0  0  0  0  0
   -5.0634    2.2224    0.0000 C   0  0  0  0  0  0  0  0  0  0  0  0
   -5.3215    0.7448    0.0000 C   0  0  0  0  0  0  0  0  0  0  0  0
   -4.1710   -0.2176    0.0000 C   0  0  0  0  0  0  0  0  0  0  0  0
   -2.7622    0.2976    0.0000 C   0  0  0  0  0  0  0  0  0  0  0  0
    0.9476   -1.1119    0.0000 P   0  0  0  0  0  0  0  0  0  0  0  0
    0.6894   -2.5896    0.0000 O   0  0  0  0  0  0  0  0  0  0  0  0
   -0.7193   -3.1048    0.0000 C   0  0  0  0  0  0  0  0  0  0  0  0
   -0.9775   -4.5824    0.0000 C   0  0  0  0  0  0  0  0  0  0  0  0
   -2.3862   -5.0976    0.0000 C   0  0  0  0  0  0  0  0  0  0  0  0
   -3.5368   -4.1352    0.0000 C   0  0  0  0  0  0  0  0  0  0  0  0
   -3.2786   -2.6576    0.0000 C   0  0  0  0  0  0  0  0  0  0  0  0
   -1.8699   -2.1424    0.0000 C   0  0  0  0  0  0  0  0  0  0  0  0
    2.3564   -0.5967    0.0000 O   0  0  0  0  0  0  0  0  0  0  0  0
    3.5069   -1.5591    0.0000 C   0  0  0  0  0  0  0  0  0  0  0  0
    3.2487   -3.0367    0.0000 C   0  0  0  0  0  0  0  0  0  0  0  0
    4.3993   -3.9991    0.0000 C   0  0  0  0  0  0  0  0  0  0  0  0
    5.8081   -3.4839    0.0000 C   0  0  0  0  0  0  0  0  0  0  0  0
    6.0662   -2.0063    0.0000 C   0  0  0  0  0  0  0  0  0  0  0  0
    4.9157   -1.0439    0.0000 C   0  0  0  0  0  0  0  0  0  0  0  0
  1  2  1  0
  2  3  1  0
  3  4  1  0
  4  5  1  0
  5  6  1  0
  6  7  1  0
  7  8  2  0
  8  9  1  0
  9 10  2  0
 10 11  1  0
 11 12  2  0
  5 13  1  0
 13 14  1  0
 14 15  2  0
 15 16  1  0
 16 17  2  0
 17 18  1  0
 18 19  2  0
  4 20  1  0
 20 21  1  0
 21 22  1  0
 22 23  2  0
 23 24  1  0
 24 25  2  0
 25 26  1  0
 26 27  2  0
 20 28  1  0
 28 29  1  0
 29 30  2  0
 30 31  1  0
 31 32  2  0
 32 33  1  0
 33 34  2  0
 12  7  1  0
 19 14  1  0
 27 22  1  0
 34 29  1  0
M  END
>  <linear_selectivity>  (1031) 
98

>  <denticity>  (1031) 
2

>  <ligand_class>  (1031) 
diphosphite

$$$$
diphosphite-C4_80C_benzene
     RDKit          2D

 34 37  0  0  0  0  0  0  0  0999 V2000
   -3.4224   -0.1492    0.0000 C   0  0  0  0  0  0  0  0  0  0  0  0
   -2.7622    0.2976    0.0000 C   0  0  0  0  0  0  0  0  0  0  0  0
   -1.6117   -0.6648    0.0000 C   0  0  0  0  0  0  0  0  0  0  0  0
   -0.2029   -0.1495    0.0000 C   0  0  0  0  0  0  0  0  0  0  0  0
    0.0552    1.3281    0.0000 P   0  0  0  0  0  0  0  0  0  0  0  0
    1.4640    1.8433    0.0000 O   0  0  0  0  0  0  0  0  0  0  0  0
    1.7222    3.3209    0.0000 C   0  0  0  0  0  0  0  0  0  0  0  0
    3.1309    3.8361    0.0000 C   0  0  0  0  0  0  0  0  0  0  0  0
    3.3891    5.3137    0.0000 C   0  0  0  0  0  0  0  0  0  0  0  0
    2.2385    6.2761    0.0000 C   0  0  0  0  0  0  0  0  0  0  0  0
    0.8298    5.7609    0.0000 C   0  0  0  0  0  0  0  0  0  0  0  0
    0.5716    4.2833    0.0000 C   0  0  0  0  0  0  0  0  0  0  0  0
   -1.0953    2.2905    0.0000 O   0  0  0  0  0  0  0  0  0  0  0  0
   -2.5041    1.7752    0.0000 C   0  0  0  0  0  0  0  0  0  0  0  0
   -3.6546    2.7376    0.0000 C   0  0  0  0  0  0  0  0  0  0  0  0
   -5.0634    2.2224    0.0000 C   0  0  0  0  0  0  0  0  0  0  0  0
   -5.3215    0.7448    0.0000 C   0  0  0  0  0  0  0  0  0  0  0  0
   -4.1710   -0.2176    0.0000 C   0  0  0  0  0  0  0  0  0  0  0  0
   -2.7622    0.2976    0.0000 C   0  0  0  0  0  0  0  0  0  0  0  0
    0.9476   -1.1119    0.0000 P   0  0  0  0  0  0  0  0  0  0  0  0
    0.6894   -2.5896    0.0000 O   0  0  0  0  0  0  0  0  0  0  0  0
   -0.7193   -3.1048    0.0000 C   0  0  0  0  0  0  0  0  0  0  0  0
   -0.9775   -4.5824    0.0000 C   0  0  0  0  0  0  0  0  0  0  0  0
   -2.3862   -5.0976    0.0000 C   0  0  0  0  0  0  0  0  0  0  0  0
   -3.5368   -4.1352    0.0000 C   0  0  0  0  0  0  0  0  0  0  0  0
   -3.2786   -2.6576    0.0000 C   0  0  0  0  0  0  0  0  0  0  0  0
   -1.8699   -2.1424    0.0000 C   0  0  0  0  0  0  0  0  0  0  0  0
    2.3564   -0.5967    0.0000 O   0  0  0  0  0  0  0  0  0  0  0  0
    3.5069   -1.5591    0.0000 C   0  0  0  0  0  0  0  0  0  0  0  0
    3.2487   -3.0367    0.0000 C   0  0  0  0  0  0  0  0  0  0  0  0
    4.3993   -3.9991    0.0000 C   0  0  0  0  0  0  0  0  0  0  0  0
    5.8081   -3.4839    0.0000 C   0  0  0  0  0  0  0  0  0  0  0  0
    6.0662   -2.0063    0.0000 C   0  0  0  0  0  0  0  0  0  0  0  0
    4.9157   -1.0439    0.0000 C   0  0  0  0  0  0  0  0  0  0  0  0
  1  2  1  0
  2  3  1  0
  3  4  1  0
  4  5  1  0
  5  6  1  0
  6  7  1  0
  7  8  2  0
  8  9  1  0
  9 10  2  0
 10 11  1  0
 11 12  2  0
  5 13  1  0
 13 14  1  0
 14 15  2  0
 15 16  1  0
 16 17  2  0
 17 18  1  0
 18 19  2  0
  4 20  1  0
 20 21  1  0
 21 22  1  0
 22 23  2  0
 23 24  1  0
 24 25  2  0
 25 26  1  0
 26 27  2  0
 20 28  1  0
 28 29  1  0
 29 30  2  0
 30 31  1  0
 31 32  2  0
 32 33  1  0
 33 34  2  0
 12  7  1  0
 19 14  1  0
 27 22  1  0
 34 29  1  0
M  END
>  <linear_selectivity>  (1032) 
92

>  <denticity>  (1032) 
2

>  <ligand_class>  (1032) 
diphosphite

$$$$
diphosphite-C4_90C_toluene
     RDKit          2D

 34 37  0  0  0  0  0  0  0  0999 V2000
   -3.4224   -0.1492    0.0000 C   0  0  0  0  0  0  0  0  0  0  0  0
   -2.7622    0.2976    0.0000 C   0  0  0  0  0  0  0  0  0  0  0  0
   -1.6117   -0.6648    0.0000 C   0  0  0  0  0  0  0  0  0  0  0  0
   -0.2029   -0.1495    0.0000 C   0  0  0  0  0  0  0  0  0  0  0  0
    0.0552    1.3281    0.0000 P   0  0  0  0  0  0  0  0  0  0  0  0
    1.4640    1.8433    0.0000 O   0  0  0  0  0  0  0  0  0  0  0  0
    1.7222    3.3209    0.0000 C   0  0  0  0  0  0  0  0  0  0  0  0
    3.1309    3.8361    0.0000 C   0  0  0  0  0  0  0  0  0  0  0  0
    3.3891    5.3137    0.0000 C   0  0  0  0  0  0  0  0  0  0  0  0
    2.2385    6.2761    0.0000 C   0  0  0  0  0  0  0  0  0  0  0  0
    0.8298    5.7609    0.0000 C   0  0  0  0  0  0  0  0  0  0  0  0
    0.5716    4.2833    0.0000 C   0  0  0  0  0  0  0  0  0  0  0  0
   -1.0953    2.2905    0.0000 O   0  0  0  0  0  0  0  0  0  0  0  0
   -2.5041    1.7752    0.0000 C   0  0  0  0  0  0  0  0  0  0  0  0
   -3.6546    2.7376    0.0000 C   0  0  0  0  0  0  0  0  0  0  0  0
   -5.0634    2.2224    0.0000 C   0  0  0  0  0  0  0  0  0  0  0  0
   -5.3215    0.7448    0.0000 C   0  0  0  0  0  0  0  0  0  0  0  0
   -4.1710   -0.2176    0.0000 C   0  0  0  0  0  0  0  0  0  0  0  0
   -2.7622    0.2976    0.0000 C   0  0  0  0  0  0  0  0  0  0  0  0
    0.9476   -1.1119    0.0000 P   0  0  0  0  0  0  0  0  0  0  0  0
    0.6894   -2.5896    0.0000 O   0  0  0  0  0  0  0  0  0  0  0  0
   -0.7193   -3.1048    0.0000 C   0  0  0  0  0  0  0  0  0  0  0  0
   -0.9775   -4.5824    0.0000 C   0  0  0  0  0  0  0  0  0  0  0  0
   -2.3862   -5.0976    0.0000 C   0  0  0  0  0  0  0  0  0  0  0  0
   -3.5368   -4.1352    0.0000 C   0  0  0  0  0  0  0  0  0  0  0  0
   -3.2786   -2.6576    0.0000 C   0  0  0  0  0  0  0  0  0  0  0  0
   -1.8699   -2.1424    0.0000 C   0  0  0  0  0  0  0  0  0  0  0  0
    2.3564   -0.5967    0.0000 O   0  0  0  0  0  0  0  0  0  0  0  0
    3.5069   -1.5591    0.0000 C   0  0  0  0  0  0  0  0  0  0  0  0
    3.2487   -3.0367    0.0000 C   0  0  0  0  0  0  0  0  0  0  0  0
    4.3993   -3.9991    0.0000 C   0  0  0  0  0  0  0  0  0  0  0  0
    5.8081   -3.4839    0.0000 C   0  0  0  0  0  0  0  0  0  0  0  0
    6.0662   -2.0063    0.0000 C   0  0  0  0  0  0  0  0  0  0  0  0
    4.9157   -1.0439    0.0000 C   0  0  0  0  0  0  0  0  0  0  0  0
  1  2  1  0
  2  3  1  0
  3  4  1  0
  4  5  1  0
  5  6  1  0
  6  7  1  0
  7  8  2  0
  8  9  1  0
  9 10  2  0
 10 11  1  0
 11 12  2  0
  5 13  1  0
 13 14  1  0
 14 15  2  0
 15 16  1  0
 16 17  2  0
 17 18  1  0
 18 19  2  0
  4 20  1  0
 20 21  1  0
 21 22  1  0
 22 23  2  0
 23 24  1  0
 24 25  2  0
 25 26  1  0
 26 27  2  0
 20 28  1  0
 28 29  1  0
 29 30  2  0
 30 31  1  0
 31 32  2  0
 32 33  1  0
 33 34  2  0
 12  7  1  0
 19 14  1  0
 27 22  1  0
 34 29  1  0
M  END
>  <linear_selectivity>  (1033) 
89

>  <denticity>  (1033) 
2

>  <ligand_class>  (1033) 
diphosphite

$$$$
diphosphite-C4_90C_dioxane
     RDKit          2D

 34 37  0  0  0  0  0  0  0  0999 V2000
   -3.4224   -0.1492    0.0000 C   0  0  0  0  0  0  0  0  0  0  0  0
   -2.7622    0.2976    0.0000 C   0  0  0  0  0  0  0  0  0  0  0  0
   -1.6117   -0.6648    0.0000 C   0  0  0  0  0  0  0  0  0  0  0  0
   -0.2029   -0.1495    0.0000 C   0  0  0  0  0  0  0  0  0  0  0  0
    0.0552    1.3281    0.0000 P   0  0  0  0  0  0  0  0  0  0  0  0
    1.4640    1.8433    0.0000 O   0  0  0  0  0  0  0  0  0  0  0  0
    1.7222    3.3209    0.0000 C   0  0  0  0  0  0  0  0  0  0  0  0
    3.1309    3.8361    0.0000 C   0  0  0  0  0  0  0  0  0  0  0  0
    3.3891    5.3137    0.0000 C   0  0  0  0  0  0  0  0  0  0  0  0
    2.2385    6.2761    0.0000 C   0  0  0  0  0  0  0  0  0  0  0  0
    0.8298    5.7609    0.0000 C   0  0  0  0  0  0  0  0  0  0  0  0
    0.5716    4.2833    0.0000 C   0  0  0  0  0  0  0  0  0  0  0  0
   -1.0953    2.2905    0.0000 O   0  0  0  0  0  0  0  0  0  0  0  0
   -2.5041    1.7752    0.0000 C   0  0  0  0  0  0  0  0  0  0  0  0
   -3.6546    2.7376    0.0000 C   0  0  0  0  0  0  0  0  0  0  0  0
   -5.0634    2.2224    0.0000 C   0  0  0  0  0  0  0  0  0  0  0  0
   -5.3215    0.7448    0.0000 C   0  0  0  0  0  0  0  0  0  0  0  0
   -4.1710   -0.2176    0.0000 C   0  0  0  0  0  0  0  0  0  0  0  0
   -2.7622    0.2976    0.0000 C   0  0  0  0  0  0  0  0  0  0  0  0
    0.9476   -1.1119    0.0000 P   0  0  0  0  0  0  0  0  0  0  0  0
    0.6894   -2.5896    0.0000 O   0  0  0  0  0  0  0  0  0  0  0  0
   -0.7193   -3.1048    0.0000 C   0  0  0  0  0  0  0  0  0  0  0  0
   -0.9775   -4.5824    0.0000 C   0  0  0  0  0  0  0  0  0  0  0  0
   -2.3862   -5.0976    0.0000 C   0  0  0  0  0  0  0  0  0  0  0  0
   -3.5368   -4.1352    0.0000 C   0  0  0  0  0  0  0  0  0  0  0  0
   -3.2786   -2.6576    0.0000 C   0  0  0  0  0  0  0  0  0  0  0  0
   -1.8699   -2.1424    0.0000 C   0  0  0  0  0  0  0  0  0  0  0  0
    2.3564   -0.5967    0.0000 O   0  0  0  0  0  0  0  0  0  0  0  0
    3.5069   -1.5591    0.0000 C   0  0  0  0  0  0  0  0  0  0  0  0
    3.2487   -3.0367    0.0000 C   0  0  0  0  0  0  0  0  0  0  0  0
    4.3993   -3.9991    0.0000 C   0  0  0  0  0  0  0  0  0  0  0  0
    5.8081   -3.4839    0.0000 C   0  0  0  0  0  0  0  0  0  0  0  0
    6.0662   -2.0063    0.0000 C   0  0  0  0  0  0  0  0  0  0  0  0
    4.9157   -1.0439    0.0000 C   0  0  0  0  0  0  0  0  0  0  0  0
  1  2  1  0
  2  3  1  0
  3  4  1  0
  4  5  1  0
  5  6  1  0
  6  7  1  0
  7  8  2  0
  8  9  1  0
  9 10  2  0
 10 11  1  0
 11 12  2  0
  5 13  1  0
 13 14  1  0
 14 15  2  0
 15 16  1  0
 16 17  2  0
 17 18  1  0
 18 19  2  0
  4 20  1  0
 20 21  1  0
 21 22  1  0
 22 23  2  0
 23 24  1  0
 24 25  2  0
 25 26  1  0
 26 27  2  0
 20 28  1  0
 28 29  1  0
 29 30  2  0
 30 31  1  0
 31 32  2  0
 32 33  1  0
 33 34  2  0
 12  7  1  0
 19 14  1  0
 27 22  1  0
 34 29  1  0
M  END
>  <linear_selectivity>  (1034) 
88

>  <denticity>  (1034) 
2

>  <ligand_class>  (1034) 
diphosphite

$$$$
diphosphite-C4_90C_benzene
     RDKit          2D

 34 37  0  0  0  0  0  0  0  0999 V2000
   -3.4224   -0.1492    0.0000 C   0  0  0  0  0  0  0  0  0  0  0  0
   -2.7622    0.2976    0.0000 C   0  0  0  0  0  0  0  0  0  0  0  0
   -1.6117   -0.6648    0.0000 C   0  0  0  0  0  0  0  0  0  0  0  0
   -0.2029   -0.1495    0.0000 C   0  0  0  0  0  0  0  0  0  0  0  0
    0.0552    1.3281    0.0000 P   0  0  0  0  0  0  0  0  0  0  0  0
    1.4640    1.8433    0.0000 O   0  0  0  0  0  0  0  0  0  0  0  0
    1.7222    3.3209    0.0000 C   0  0  0  0  0  0  0  0  0  0  0  0
    3.1309    3.8361    0.0000 C   0  0  0  0  0  0  0  0  0  0  0  0
    3.3891    5.3137    0.0000 C   0  0  0  0  0  0  0  0  0  0  0  0
    2.2385    6.2761    0.0000 C   0  0  0  0  0  0  0  0  0  0  0  0
    0.8298    5.7609    0.0000 C   0  0  0  0  0  0  0  0  0  0  0  0
    0.5716    4.2833    0.0000 C   0  0  0  0  0  0  0  0  0  0  0  0
   -1.0953    2.2905    0.0000 O   0  0  0  0  0  0  0  0  0  0  0  0
   -2.5041    1.7752    0.0000 C   0  0  0  0  0  0  0  0  0  0  0  0
   -3.6546    2.7376    0.0000 C   0  0  0  0  0  0  0  0  0  0  0  0
   -5.0634    2.2224    0.0000 C   0  0  0  0  0  0  0  0  0  0  0  0
   -5.3215    0.7448    0.0000 C   0  0  0  0  0  0  0  0  0  0  0  0
   -4.1710   -0.2176    0.0000 C   0  0  0  0  0  0  0  0  0  0  0  0
   -2.7622    0.2976    0.0000 C   0  0  0  0  0  0  0  0  0  0  0  0
    0.9476   -1.1119    0.0000 P   0  0  0  0  0  0  0  0  0  0  0  0
    0.6894   -2.5896    0.0000 O   0  0  0  0  0  0  0  0  0  0  0  0
   -0.7193   -3.1048    0.0000 C   0  0  0  0  0  0  0  0  0  0  0  0
   -0.9775   -4.5824    0.0000 C   0  0  0  0  0  0  0  0  0  0  0  0
   -2.3862   -5.0976    0.0000 C   0  0  0  0  0  0  0  0  0  0  0  0
   -3.5368   -4.1352    0.0000 C   0  0  0  0  0  0  0  0  0  0  0  0
   -3.2786   -2.6576    0.0000 C   0  0  0  0  0  0  0  0  0  0  0  0
   -1.8699   -2.1424    0.0000 C   0  0  0  0  0  0  0  0  0  0  0  0
    2.3564   -0.5967    0.0000 O   0  0  0  0  0  0  0  0  0  0  0  0
    3.5069   -1.5591    0.0000 C   0  0  0  0  0  0  0  0  0  0  0  0
    3.2487   -3.0367    0.0000 C   0  0  0  0  0  0  0  0  0  0  0  0
    4.3993   -3.9991    0.0000 C   0  0  0  0  0  0  0  0  0  0  0  0
    5.8081   -3.4839    0.0000 C   0  0  0  0  0  0  0  0  0  0  0  0
    6.0662   -2.0063    0.0000 C   0  0  0  0  0  0  0  0  0  0  0  0
    4.9157   -1.0439    0.0000 C   0  0  0  0  0  0  0  0  0  0  0  0
  1  2  1  0
  2  3  1  0
  3  4  1  0
  4  5  1  0
  5  6  1  0
  6  7  1  0
  7  8  2  0
  8  9  1  0
  9 10  2  0
 10 11  1  0
 11 12  2  0
  5 13  1  0
 13 14  1  0
 14 15  2  0
 15 16  1  0
 16 17  2  0
 17 18  1  0
 18 19  2  0
  4 20  1  0
 20 21  1  0
 21 22  1  0
 22 23  2  0
 23 24  1  0
 24 25  2  0
 25 26  1  0
 26 27  2  0
 20 28  1  0
 28 29  1  0
 29 30  2  0
 30 31  1  0
 31 32  2  0
 32 33  1  0
 33 34  2  0
 12  7  1  0
 19 14  1  0
 27 22  1  0
 34 29  1  0
M  END
>  <linear_selectivity>  (1035) 
93

>  <denticity>  (1035) 
2

>  <ligand_class>  (1035) 
diphosphite

$$$$
diphosphite-C4_100C_toluene
     RDKit          2D

 34 37  0  0  0  0  0  0  0  0999 V2000
   -3.4224   -0.1492    0.0000 C   0  0  0  0  0  0  0  0  0  0  0  0
   -2.7622    0.2976    0.0000 C   0  0  0  0  0  0  0  0  0  0  0  0
   -1.6117   -0.6648    0.0000 C   0  0  0  0  0  0  0  0  0  0  0  0
   -0.2029   -0.1495    0.0000 C   0  0  0  0  0  0  0  0  0  0  0  0
    0.0552    1.3281    0.0000 P   0  0  0  0  0  0  0  0  0  0  0  0
    1.4640    1.8433    0.0000 O   0  0  0  0  0  0  0  0  0  0  0  0
    1.7222    3.3209    0.0000 C   0  0  0  0  0  0  0  0  0  0  0  0
    3.1309    3.8361    0.0000 C   0  0  0  0  0  0  0  0  0  0  0  0
    3.3891    5.3137    0.0000 C   0  0  0  0  0  0  0  0  0  0  0  0
    2.2385    6.2761    0.0000 C   0  0  0  0  0  0  0  0  0  0  0  0
    0.8298    5.7609    0.0000 C   0  0  0  0  0  0  0  0  0  0  0  0
    0.5716    4.2833    0.0000 C   0  0  0  0  0  0  0  0  0  0  0  0
   -1.0953    2.2905    0.0000 O   0  0  0  0  0  0  0  0  0  0  0  0
   -2.5041    1.7752    0.0000 C   0  0  0  0  0  0  0  0  0  0  0  0
   -3.6546    2.7376    0.0000 C   0  0  0  0  0  0  0  0  0  0  0  0
   -5.0634    2.2224    0.0000 C   0  0  0  0  0  0  0  0  0  0  0  0
   -5.3215    0.7448    0.0000 C   0  0  0  0  0  0  0  0  0  0  0  0
   -4.1710   -0.2176    0.0000 C   0  0  0  0  0  0  0  0  0  0  0  0
   -2.7622    0.2976    0.0000 C   0  0  0  0  0  0  0  0  0  0  0  0
    0.9476   -1.1119    0.0000 P   0  0  0  0  0  0  0  0  0  0  0  0
    0.6894   -2.5896    0.0000 O   0  0  0  0  0  0  0  0  0  0  0  0
   -0.7193   -3.1048    0.0000 C   0  0  0  0  0  0  0  0  0  0  0  0
   -0.9775   -4.5824    0.0000 C   0  0  0  0  0  0  0  0  0  0  0  0
   -2.3862   -5.0976    0.0000 C   0  0  0  0  0  0  0  0  0  0  0  0
   -3.5368   -4.1352    0.0000 C   0  0  0  0  0  0  0  0  0  0  0  0
   -3.2786   -2.6576    0.0000 C   0  0  0  0  0  0  0  0  0  0  0  0
   -1.8699   -2.1424    0.0000 C   0  0  0  0  0  0  0  0  0  0  0  0
    2.3564   -0.5967    0.0000 O   0  0  0  0  0  0  0  0  0  0  0  0
    3.5069   -1.5591    0.0000 C   0  0  0  0  0  0  0  0  0  0  0  0
    3.2487   -3.0367    0.0000 C   0  0  0  0  0  0  0  0  0  0  0  0
    4.3993   -3.9991    0.0000 C   0  0  0  0  0  0  0  0  0  0  0  0
    5.8081   -3.4839    0.0000 C   0  0  0  0  0  0  0  0  0  0  0  0
    6.0662   -2.0063    0.0000 C   0  0  0  0  0  0  0  0  0  0  0  0
    4.9157   -1.0439    0.0000 C   0  0  0  0  0  0  0  0  0  0  0  0
  1  2  1  0
  2  3  1  0
  3  4  1  0
  4  5  1  0
  5  6  1  0
  6  7  1  0
  7  8  2  0
  8  9  1  0
  9 10  2  0
 10 11  1  0
 11 12  2  0
  5 13  1  0
 13 14  1  0
 14 15  2  0
 15 16  1  0
 16 17  2  0
 17 18  1  0
 18 19  2  0
  4 20  1  0
 20 21  1  0
 21 22  1  0
 22 23  2  0
 23 24  1  0
 24 25  2  0
 25 26  1  0
 26 27  2  0
 20 28  1  0
 28 29  1  0
 29 30  2  0
 30 31  1  0
 31 32  2  0
 32 33  1  0
 33 34  2  0
 12  7  1  0
 19 14  1  0
 27 22  1  0
 34 29  1  0
M  END
>  <linear_selectivity>  (1036) 
86

>  <denticity>  (1036) 
2

>  <ligand_class>  (1036) 
diphosphite

$$$$
diphosphite-C4_100C_THF
     RDKit          2D

 34 37  0  0  0  0  0  0  0  0999 V2000
   -3.4224   -0.1492    0.0000 C   0  0  0  0  0  0  0  0  0  0  0  0
   -2.7622    0.2976    0.0000 C   0  0  0  0  0  0  0  0  0  0  0  0
   -1.6117   -0.6648    0.0000 C   0  0  0  0  0  0  0  0  0  0  0  0
   -0.2029   -0.1495    0.0000 C   0  0  0  0  0  0  0  0  0  0  0  0
    0.0552    1.3281    0.0000 P   0  0  0  0  0  0  0  0  0  0  0  0
    1.4640    1.8433    0.0000 O   0  0  0  0  0  0  0  0  0  0  0  0
    1.7222    3.3209    0.0000 C   0  0  0  0  0  0  0  0  0  0  0  0
    3.1309    3.8361    0.0000 C   0  0  0  0  0  0  0  0  0  0  0  0
    3.3891    5.3137    0.0000 C   0  0  0  0  0  0  0  0  0  0  0  0
    2.2385    6.2761    0.0000 C   0  0  0  0  0  0  0  0  0  0  0  0
    0.8298    5.7609    0.0000 C   0  0  0  0  0  0  0  0  0  0  0  0
    0.5716    4.2833    0.0000 C   0  0  0  0  0  0  0  0  0  0  0  0
   -1.0953    2.2905    0.0000 O   0  0  0  0  0  0  0  0  0  0  0  0
   -2.5041    1.7752    0.0000 C   0  0  0  0  0  0  0  0  0  0  0  0
   -3.6546    2.7376    0.0000 C   0  0  0  0  0  0  0  0  0  0  0  0
   -5.0634    2.2224    0.0000 C   0  0  0  0  0  0  0  0  0  0  0  0
   -5.3215    0.7448    0.0000 C   0  0  0  0  0  0  0  0  0  0  0  0
   -4.1710   -0.2176    0.0000 C   0  0  0  0  0  0  0  0  0  0  0  0
   -2.7622    0.2976    0.0000 C   0  0  0  0  0  0  0  0  0  0  0  0
    0.9476   -1.1119    0.0000 P   0  0  0  0  0  0  0  0  0  0  0  0
    0.6894   -2.5896    0.0000 O   0  0  0  0  0  0  0  0  0  0  0  0
   -0.7193   -3.1048    0.0000 C   0  0  0  0  0  0  0  0  0  0  0  0
   -0.9775   -4.5824    0.0000 C   0  0  0  0  0  0  0  0  0  0  0  0
   -2.3862   -5.0976    0.0000 C   0  0  0  0  0  0  0  0  0  0  0  0
   -3.5368   -4.1352    0.0000 C   0  0  0  0  0  0  0  0  0  0  0  0
   -3.2786   -2.6576    0.0000 C   0  0  0  0  0  0  0  0  0  0  0  0
   -1.8699   -2.1424    0.0000 C   0  0  0  0  0  0  0  0  0  0  0  0
    2.3564   -0.5967    0.0000 O   0  0  0  0  0  0  0  0  0  0  0  0
    3.5069   -1.5591    0.0000 C   0  0  0  0  0  0  0  0  0  0  0  0
    3.2487   -3.0367    0.0000 C   0  0  0  0  0  0  0  0  0  0  0  0
    4.3993   -3.9991    0.0000 C   0  0  0  0  0  0  0  0  0  0  0  0
    5.8081   -3.4839    0.0000 C   0  0  0  0  0  0  0  0  0  0  0  0
    6.0662   -2.0063    0.0000 C   0  0  0  0  0  0  0  0  0  0  0  0
    4.9157   -1.0439    0.0000 C   0  0  0  0  0  0  0  0  0  0  0  0
  1  2  1  0
  2  3  1  0
  3  4  1  0
  4  5  1  0
  5  6  1  0
  6  7  1  0
  7  8  2  0
  8  9  1  0
  9 10  2  0
 10 11  1  0
 11 12  2  0
  5 13  1  0
 13 14  1  0
 14 15  2  0
 15 16  1  0
 16 17  2  0
 17 18  1  0
 18 19  2  0
  4 20  1  0
 20 21  1  0
 21 22  1  0
 22 23  2  0
 23 24  1  0
 24 25  2  0
 25 26  1  0
 26 27  2  0
 20 28  1  0
 28 29  1  0
 29 30  2  0
 30 31  1  0
 31 32  2  0
 32 33  1  0
 33 34  2  0
 12  7  1  0
 19 14  1  0
 27 22  1  0
 34 29  1  0
M  END
>  <linear_selectivity>  (1037) 
79

>  <denticity>  (1037) 
2

>  <ligand_class>  (1037) 
diphosphite

$$$$
diphosphite-C4_100C_dioxane
     RDKit          2D

 34 37  0  0  0  0  0  0  0  0999 V2000
   -3.4224   -0.1492    0.0000 C   0  0  0  0  0  0  0  0  0  0  0  0
   -2.7622    0.2976    0.0000 C   0  0  0  0  0  0  0  0  0  0  0  0
   -1.6117   -0.6648    0.0000 C   0  0  0  0  0  0  0  0  0  0  0  0
   -0.2029   -0.1495    0.0000 C   0  0  0  0  0  0  0  0  0  0  0  0
    0.0552    1.3281    0.0000 P   0  0  0  0  0  0  0  0  0  0  0  0
    1.4640    1.8433    0.0000 O   0  0  0  0  0  0  0  0  0  0  0  0
    1.7222    3.3209    0.0000 C   0  0  0  0  0  0  0  0  0  0  0  0
    3.1309    3.8361    0.0000 C   0  0  0  0  0  0  0  0  0  0  0  0
    3.3891    5.3137    0.0000 C   0  0  0  0  0  0  0  0  0  0  0  0
    2.2385    6.2761    0.0000 C   0  0  0  0  0  0  0  0  0  0  0  0
    0.8298    5.7609    0.0000 C   0  0  0  0  0  0  0  0  0  0  0  0
    0.5716    4.2833    0.0000 C   0  0  0  0  0  0  0  0  0  0  0  0
   -1.0953    2.2905    0.0000 O   0  0  0  0  0  0  0  0  0  0  0  0
   -2.5041    1.7752    0.0000 C   0  0  0  0  0  0  0  0  0  0  0  0
   -3.6546    2.7376    0.0000 C   0  0  0  0  0  0  0  0  0  0  0  0
   -5.0634    2.2224    0.0000 C   0  0  0  0  0  0  0  0  0  0  0  0
   -5.3215    0.7448    0.0000 C   0  0  0  0  0  0  0  0  0  0  0  0
   -4.1710   -0.2176    0.0000 C   0  0  0  0  0  0  0  0  0  0  0  0
   -2.7622    0.2976    0.0000 C   0  0  0  0  0  0  0  0  0  0  0  0
    0.9476   -1.1119    0.0000 P   0  0  0  0  0  0  0  0  0  0  0  0
    0.6894   -2.5896    0.0000 O   0  0  0  0  0  0  0  0  0  0  0  0
   -0.7193   -3.1048    0.0000 C   0  0  0  0  0  0  0  0  0  0  0  0
   -0.9775   -4.5824    0.0000 C   0  0  0  0  0  0  0  0  0  0  0  0
   -2.3862   -5.0976    0.0000 C   0  0  0  0  0  0  0  0  0  0  0  0
   -3.5368   -4.1352    0.0000 C   0  0  0  0  0  0  0  0  0  0  0  0
   -3.2786   -2.6576    0.0000 C   0  0  0  0  0  0  0  0  0  0  0  0
   -1.8699   -2.1424    0.0000 C   0  0  0  0  0  0  0  0  0  0  0  0
    2.3564   -0.5967    0.0000 O   0  0  0  0  0  0  0  0  0  0  0  0
    3.5069   -1.5591    0.0000 C   0  0  0  0  0  0  0  0  0  0  0  0
    3.2487   -3.0367    0.0000 C   0  0  0  0  0  0  0  0  0  0  0  0
    4.3993   -3.9991    0.0000 C   0  0  0  0  0  0  0  0  0  0  0  0
    5.8081   -3.4839    0.0000 C   0  0  0  0  0  0  0  0  0  0  0  0
    6.0662   -2.0063    0.0000 C   0  0  0  0  0  0  0  0  0  0  0  0
    4.9157   -1.0439    0.0000 C   0  0  0  0  0  0  0  0  0  0  0  0
  1  2  1  0
  2  3  1  0
  3  4  1  0
  4  5  1  0
  5  6  1  0
  6  7  1  0
  7  8  2  0
  8  9  1  0
  9 10  2  0
 10 11  1  0
 11 12  2  0
  5 13  1  0
 13 14  1  0
 14 15  2  0
 15 16  1  0
 16 17  2  0
 17 18  1  0
 18 19  2  0
  4 20  1  0
 20 21  1  0
 21 22  1  0
 22 23  2  0
 23 24  1  0
 24 25  2  0
 25 26  1  0
 26 27  2  0
 20 28  1  0
 28 29  1  0
 29 30  2  0
 30 31  1  0
 31 32  2  0
 32 33  1  0
 33 34  2  0
 12  7  1  0
 19 14  1  0
 27 22  1  0
 34 29  1  0
M  END
>  <linear_selectivity>  (1038) 
80

>  <denticity>  (1038) 
2

>  <ligand_class>  (1038) 
diphosphite

$$$$
diphosphite-C4_100C_hexane
     RDKit          2D

 34 37  0  0  0  0  0  0  0  0999 V2000
   -3.4224   -0.1492    0.0000 C   0  0  0  0  0  0  0  0  0  0  0  0
   -2.7622    0.2976    0.0000 C   0  0  0  0  0  0  0  0  0  0  0  0
   -1.6117   -0.6648    0.0000 C   0  0  0  0  0  0  0  0  0  0  0  0
   -0.2029   -0.1495    0.0000 C   0  0  0  0  0  0  0  0  0  0  0  0
    0.0552    1.3281    0.0000 P   0  0  0  0  0  0  0  0  0  0  0  0
    1.4640    1.8433    0.0000 O   0  0  0  0  0  0  0  0  0  0  0  0
    1.7222    3.3209    0.0000 C   0  0  0  0  0  0  0  0  0  0  0  0
    3.1309    3.8361    0.0000 C   0  0  0  0  0  0  0  0  0  0  0  0
    3.3891    5.3137    0.0000 C   0  0  0  0  0  0  0  0  0  0  0  0
    2.2385    6.2761    0.0000 C   0  0  0  0  0  0  0  0  0  0  0  0
    0.8298    5.7609    0.0000 C   0  0  0  0  0  0  0  0  0  0  0  0
    0.5716    4.2833    0.0000 C   0  0  0  0  0  0  0  0  0  0  0  0
   -1.0953    2.2905    0.0000 O   0  0  0  0  0  0  0  0  0  0  0  0
   -2.5041    1.7752    0.0000 C   0  0  0  0  0  0  0  0  0  0  0  0
   -3.6546    2.7376    0.0000 C   0  0  0  0  0  0  0  0  0  0  0  0
   -5.0634    2.2224    0.0000 C   0  0  0  0  0  0  0  0  0  0  0  0
   -5.3215    0.7448    0.0000 C   0  0  0  0  0  0  0  0  0  0  0  0
   -4.1710   -0.2176    0.0000 C   0  0  0  0  0  0  0  0  0  0  0  0
   -2.7622    0.2976    0.0000 C   0  0  0  0  0  0  0  0  0  0  0  0
    0.9476   -1.1119    0.0000 P   0  0  0  0  0  0  0  0  0  0  0  0
    0.6894   -2.5896    0.0000 O   0  0  0  0  0  0  0  0  0  0  0  0
   -0.7193   -3.1048    0.0000 C   0  0  0  0  0  0  0  0  0  0  0  0
   -0.9775   -4.5824    0.0000 C   0  0  0  0  0  0  0  0  0  0  0  0
   -2.3862   -5.0976    0.0000 C   0  0  0  0  0  0  0  0  0  0  0  0
   -3.5368   -4.1352    0.0000 C   0  0  0  0  0  0  0  0  0  0  0  0
   -3.2786   -2.6576    0.0000 C   0  0  0  0  0  0  0  0  0  0  0  0
   -1.8699   -2.1424    0.0000 C   0  0  0  0  0  0  0  0  0  0  0  0
    2.3564   -0.5967    0.0000 O   0  0  0  0  0  0  0  0  0  0  0  0
    3.5069   -1.5591    0.0000 C   0  0  0  0  0  0  0  0  0  0  0  0
    3.2487   -3.0367    0.0000 C   0  0  0  0  0  0  0  0  0  0  0  0
    4.3993   -3.9991    0.0000 C   0  0  0  0  0  0  0  0  0  0  0  0
    5.8081   -3.4839    0.0000 C   0  0  0  0  0  0  0  0  0  0  0  0
    6.0662   -2.0063    0.0000 C   0  0  0  0  0  0  0  0  0  0  0  0
    4.9157   -1.0439    0.0000 C   0  0  0  0  0  0  0  0  0  0  0  0
  1  2  1  0
  2  3  1  0
  3  4  1  0
  4  5  1  0
  5  6  1  0
  6  7  1  0
  7  8  2  0
  8  9  1  0
  9 10  2  0
 10 11  1  0
 11 12  2  0
  5 13  1  0
 13 14  1  0
 14 15  2  0
 15 16  1  0
 16 17  2  0
 17 18  1  0
 18 19  2  0
  4 20  1  0
 20 21  1  0
 21 22  1  0
 22 23  2  0
 23 24  1  0
 24 25  2  0
 25 26  1  0
 26 27  2  0
 20 28  1  0
 28 29  1  0
 29 30  2  0
 30 31  1  0
 31 32  2  0
 32 33  1  0
 33 34  2  0
 12  7  1  0
 19 14  1  0
 27 22  1  0
 34 29  1  0
M  END
>  <linear_selectivity>  (1039) 
89

>  <denticity>  (1039) 
2

>  <ligand_class>  (1039) 
diphosphite

$$$$
diphosphite-C4_100C_benzene
     RDKit          2D

 34 37  0  0  0  0  0  0  0  0999 V2000
   -3.4224   -0.1492    0.0000 C   0  0  0  0  0  0  0  0  0  0  0  0
   -2.7622    0.2976    0.0000 C   0  0  0  0  0  0  0  0  0  0  0  0
   -1.6117   -0.6648    0.0000 C   0  0  0  0  0  0  0  0  0  0  0  0
   -0.2029   -0.1495    0.0000 C   0  0  0  0  0  0  0  0  0  0  0  0
    0.0552    1.3281    0.0000 P   0  0  0  0  0  0  0  0  0  0  0  0
    1.4640    1.8433    0.0000 O   0  0  0  0  0  0  0  0  0  0  0  0
    1.7222    3.3209    0.0000 C   0  0  0  0  0  0  0  0  0  0  0  0
    3.1309    3.8361    0.0000 C   0  0  0  0  0  0  0  0  0  0  0  0
    3.3891    5.3137    0.0000 C   0  0  0  0  0  0  0  0  0  0  0  0
    2.2385    6.2761    0.0000 C   0  0  0  0  0  0  0  0  0  0  0  0
    0.8298    5.7609    0.0000 C   0  0  0  0  0  0  0  0  0  0  0  0
    0.5716    4.2833    0.0000 C   0  0  0  0  0  0  0  0  0  0  0  0
   -1.0953    2.2905    0.0000 O   0  0  0  0  0  0  0  0  0  0  0  0
   -2.5041    1.7752    0.0000 C   0  0  0  0  0  0  0  0  0  0  0  0
   -3.6546    2.7376    0.0000 C   0  0  0  0  0  0  0  0  0  0  0  0
   -5.0634    2.2224    0.0000 C   0  0  0  0  0  0  0  0  0  0  0  0
   -5.3215    0.7448    0.0000 C   0  0  0  0  0  0  0  0  0  0  0  0
   -4.1710   -0.2176    0.0000 C   0  0  0  0  0  0  0  0  0  0  0  0
   -2.7622    0.2976    0.0000 C   0  0  0  0  0  0  0  0  0  0  0  0
    0.9476   -1.1119    0.0000 P   0  0  0  0  0  0  0  0  0  0  0  0
    0.6894   -2.5896    0.0000 O   0  0  0  0  0  0  0  0  0  0  0  0
   -0.7193   -3.1048    0.0000 C   0  0  0  0  0  0  0  0  0  0  0  0
   -0.9775   -4.5824    0.0000 C   0  0  0  0  0  0  0  0  0  0  0  0
   -2.3862   -5.0976    0.0000 C   0  0  0  0  0  0  0  0  0  0  0  0
   -3.5368   -4.1352    0.0000 C   0  0  0  0  0  0  0  0  0  0  0  0
   -3.2786   -2.6576    0.0000 C   0  0  0  0  0  0  0  0  0  0  0  0
   -1.8699   -2.1424    0.0000 C   0  0  0  0  0  0  0  0  0  0  0  0
    2.3564   -0.5967    0.0000 O   0  0  0  0  0  0  0  0  0  0  0  0
    3.5069   -1.5591    0.0000 C   0  0  0  0  0  0  0  0  0  0  0  0
    3.2487   -3.0367    0.0000 C   0  0  0  0  0  0  0  0  0  0  0  0
    4.3993   -3.9991    0.0000 C   0  0  0  0  0  0  0  0  0  0  0  0
    5.8081   -3.4839    0.0000 C   0  0  0  0  0  0  0  0  0  0  0  0
    6.0662   -2.0063    0.0000 C   0  0  0  0  0  0  0  0  0  0  0  0
    4.9157   -1.0439    0.0000 C   0  0  0  0  0  0  0  0  0  0  0  0
  1  2  1  0
  2  3  1  0
  3  4  1  0
  4  5  1  0
  5  6  1  0
  6  7  1  0
  7  8  2  0
  8  9  1  0
  9 10  2  0
 10 11  1  0
 11 12  2  0
  5 13  1  0
 13 14  1  0
 14 15  2  0
 15 16  1  0
 16 17  2  0
 17 18  1  0
 18 19  2  0
  4 20  1  0
 20 21  1  0
 21 22  1  0
 22 23  2  0
 23 24  1  0
 24 25  2  0
 25 26  1  0
 26 27  2  0
 20 28  1  0
 28 29  1  0
 29 30  2  0
 30 31  1  0
 31 32  2  0
 32 33  1  0
 33 34  2  0
 12  7  1  0
 19 14  1  0
 27 22  1  0
 34 29  1  0
M  END
>  <linear_selectivity>  (1040) 
82

>  <denticity>  (1040) 
2

>  <ligand_class>  (1040) 
diphosphite

$$$$
diphosphite-C4_100C_xylene
     RDKit          2D

 34 37  0  0  0  0  0  0  0  0999 V2000
   -3.4224   -0.1492    0.0000 C   0  0  0  0  0  0  0  0  0  0  0  0
   -2.7622    0.2976    0.0000 C   0  0  0  0  0  0  0  0  0  0  0  0
   -1.6117   -0.6648    0.0000 C   0  0  0  0  0  0  0  0  0  0  0  0
   -0.2029   -0.1495    0.0000 C   0  0  0  0  0  0  0  0  0  0  0  0
    0.0552    1.3281    0.0000 P   0  0  0  0  0  0  0  0  0  0  0  0
    1.4640    1.8433    0.0000 O   0  0  0  0  0  0  0  0  0  0  0  0
    1.7222    3.3209    0.0000 C   0  0  0  0  0  0  0  0  0  0  0  0
    3.1309    3.8361    0.0000 C   0  0  0  0  0  0  0  0  0  0  0  0
    3.3891    5.3137    0.0000 C   0  0  0  0  0  0  0  0  0  0  0  0
    2.2385    6.2761    0.0000 C   0  0  0  0  0  0  0  0  0  0  0  0
    0.8298    5.7609    0.0000 C   0  0  0  0  0  0  0  0  0  0  0  0
    0.5716    4.2833    0.0000 C   0  0  0  0  0  0  0  0  0  0  0  0
   -1.0953    2.2905    0.0000 O   0  0  0  0  0  0  0  0  0  0  0  0
   -2.5041    1.7752    0.0000 C   0  0  0  0  0  0  0  0  0  0  0  0
   -3.6546    2.7376    0.0000 C   0  0  0  0  0  0  0  0  0  0  0  0
   -5.0634    2.2224    0.0000 C   0  0  0  0  0  0  0  0  0  0  0  0
   -5.3215    0.7448    0.0000 C   0  0  0  0  0  0  0  0  0  0  0  0
   -4.1710   -0.2176    0.0000 C   0  0  0  0  0  0  0  0  0  0  0  0
   -2.7622    0.2976    0.0000 C   0  0  0  0  0  0  0  0  0  0  0  0
    0.9476   -1.1119    0.0000 P   0  0  0  0  0  0  0  0  0  0  0  0
    0.6894   -2.5896    0.0000 O   0  0  0  0  0  0  0  0  0  0  0  0
   -0.7193   -3.1048    0.0000 C   0  0  0  0  0  0  0  0  0  0  0  0
   -0.9775   -4.5824    0.0000 C   0  0  0  0  0  0  0  0  0  0  0  0
   -2.3862   -5.0976    0.0000 C   0  0  0  0  0  0  0  0  0  0  0  0
   -3.5368   -4.1352    0.0000 C   0  0  0  0  0  0  0  0  0  0  0  0
   -3.2786   -2.6576    0.0000 C   0  0  0  0  0  0  0  0  0  0  0  0
   -1.8699   -2.1424    0.0000 C   0  0  0  0  0  0  0  0  0  0  0  0
    2.3564   -0.5967    0.0000 O   0  0  0  0  0  0  0  0  0  0  0  0
    3.5069   -1.5591    0.0000 C   0  0  0  0  0  0  0  0  0  0  0  0
    3.2487   -3.0367    0.0000 C   0  0  0  0  0  0  0  0  0  0  0  0
    4.3993   -3.9991    0.0000 C   0  0  0  0  0  0  0  0  0  0  0  0
    5.8081   -3.4839    0.0000 C   0  0  0  0  0  0  0  0  0  0  0  0
    6.0662   -2.0063    0.0000 C   0  0  0  0  0  0  0  0  0  0  0  0
    4.9157   -1.0439    0.0000 C   0  0  0  0  0  0  0  0  0  0  0  0
  1  2  1  0
  2  3  1  0
  3  4  1  0
  4  5  1  0
  5  6  1  0
  6  7  1  0
  7  8  2  0
  8  9  1  0
  9 10  2  0
 10 11  1  0
 11 12  2  0
  5 13  1  0
 13 14  1  0
 14 15  2  0
 15 16  1  0
 16 17  2  0
 17 18  1  0
 18 19  2  0
  4 20  1  0
 20 21  1  0
 21 22  1  0
 22 23  2  0
 23 24  1  0
 24 25  2  0
 25 26  1  0
 26 27  2  0
 20 28  1  0
 28 29  1  0
 29 30  2  0
 30 31  1  0
 31 32  2  0
 32 33  1  0
 33 34  2  0
 12  7  1  0
 19 14  1  0
 27 22  1  0
 34 29  1  0
M  END
>  <linear_selectivity>  (1041) 
89

>  <denticity>  (1041) 
2

>  <ligand_class>  (1041) 
diphosphite

$$$$
diphosphite-C4_110C_toluene
     RDKit          2D

 34 37  0  0  0  0  0  0  0  0999 V2000
   -3.4224   -0.1492    0.0000 C   0  0  0  0  0  0  0  0  0  0  0  0
   -2.7622    0.2976    0.0000 C   0  0  0  0  0  0  0  0  0  0  0  0
   -1.6117   -0.6648    0.0000 C   0  0  0  0  0  0  0  0  0  0  0  0
   -0.2029   -0.1495    0.0000 C   0  0  0  0  0  0  0  0  0  0  0  0
    0.0552    1.3281    0.0000 P   0  0  0  0  0  0  0  0  0  0  0  0
    1.4640    1.8433    0.0000 O   0  0  0  0  0  0  0  0  0  0  0  0
    1.7222    3.3209    0.0000 C   0  0  0  0  0  0  0  0  0  0  0  0
    3.1309    3.8361    0.0000 C   0  0  0  0  0  0  0  0  0  0  0  0
    3.3891    5.3137    0.0000 C   0  0  0  0  0  0  0  0  0  0  0  0
    2.2385    6.2761    0.0000 C   0  0  0  0  0  0  0  0  0  0  0  0
    0.8298    5.7609    0.0000 C   0  0  0  0  0  0  0  0  0  0  0  0
    0.5716    4.2833    0.0000 C   0  0  0  0  0  0  0  0  0  0  0  0
   -1.0953    2.2905    0.0000 O   0  0  0  0  0  0  0  0  0  0  0  0
   -2.5041    1.7752    0.0000 C   0  0  0  0  0  0  0  0  0  0  0  0
   -3.6546    2.7376    0.0000 C   0  0  0  0  0  0  0  0  0  0  0  0
   -5.0634    2.2224    0.0000 C   0  0  0  0  0  0  0  0  0  0  0  0
   -5.3215    0.7448    0.0000 C   0  0  0  0  0  0  0  0  0  0  0  0
   -4.1710   -0.2176    0.0000 C   0  0  0  0  0  0  0  0  0  0  0  0
   -2.7622    0.2976    0.0000 C   0  0  0  0  0  0  0  0  0  0  0  0
    0.9476   -1.1119    0.0000 P   0  0  0  0  0  0  0  0  0  0  0  0
    0.6894   -2.5896    0.0000 O   0  0  0  0  0  0  0  0  0  0  0  0
   -0.7193   -3.1048    0.0000 C   0  0  0  0  0  0  0  0  0  0  0  0
   -0.9775   -4.5824    0.0000 C   0  0  0  0  0  0  0  0  0  0  0  0
   -2.3862   -5.0976    0.0000 C   0  0  0  0  0  0  0  0  0  0  0  0
   -3.5368   -4.1352    0.0000 C   0  0  0  0  0  0  0  0  0  0  0  0
   -3.2786   -2.6576    0.0000 C   0  0  0  0  0  0  0  0  0  0  0  0
   -1.8699   -2.1424    0.0000 C   0  0  0  0  0  0  0  0  0  0  0  0
    2.3564   -0.5967    0.0000 O   0  0  0  0  0  0  0  0  0  0  0  0
    3.5069   -1.5591    0.0000 C   0  0  0  0  0  0  0  0  0  0  0  0
    3.2487   -3.0367    0.0000 C   0  0  0  0  0  0  0  0  0  0  0  0
    4.3993   -3.9991    0.0000 C   0  0  0  0  0  0  0  0  0  0  0  0
    5.8081   -3.4839    0.0000 C   0  0  0  0  0  0  0  0  0  0  0  0
    6.0662   -2.0063    0.0000 C   0  0  0  0  0  0  0  0  0  0  0  0
    4.9157   -1.0439    0.0000 C   0  0  0  0  0  0  0  0  0  0  0  0
  1  2  1  0
  2  3  1  0
  3  4  1  0
  4  5  1  0
  5  6  1  0
  6  7  1  0
  7  8  2  0
  8  9  1  0
  9 10  2  0
 10 11  1  0
 11 12  2  0
  5 13  1  0
 13 14  1  0
 14 15  2  0
 15 16  1  0
 16 17  2  0
 17 18  1  0
 18 19  2  0
  4 20  1  0
 20 21  1  0
 21 22  1  0
 22 23  2  0
 23 24  1  0
 24 25  2  0
 25 26  1  0
 26 27  2  0
 20 28  1  0
 28 29  1  0
 29 30  2  0
 30 31  1  0
 31 32  2  0
 32 33  1  0
 33 34  2  0
 12  7  1  0
 19 14  1  0
 27 22  1  0
 34 29  1  0
M  END
>  <linear_selectivity>  (1042) 
81

>  <denticity>  (1042) 
2

>  <ligand_class>  (1042) 
diphosphite

$$$$
diphosphite-C4_110C_hexane
     RDKit          2D

 34 37  0  0  0  0  0  0  0  0999 V2000
   -3.4224   -0.1492    0.0000 C   0  0  0  0  0  0  0  0  0  0  0  0
   -2.7622    0.2976    0.0000 C   0  0  0  0  0  0  0  0  0  0  0  0
   -1.6117   -0.6648    0.0000 C   0  0  0  0  0  0  0  0  0  0  0  0
   -0.2029   -0.1495    0.0000 C   0  0  0  0  0  0  0  0  0  0  0  0
    0.0552    1.3281    0.0000 P   0  0  0  0  0  0  0  0  0  0  0  0
    1.4640    1.8433    0.0000 O   0  0  0  0  0  0  0  0  0  0  0  0
    1.7222    3.3209    0.0000 C   0  0  0  0  0  0  0  0  0  0  0  0
    3.1309    3.8361    0.0000 C   0  0  0  0  0  0  0  0  0  0  0  0
    3.3891    5.3137    0.0000 C   0  0  0  0  0  0  0  0  0  0  0  0
    2.2385    6.2761    0.0000 C   0  0  0  0  0  0  0  0  0  0  0  0
    0.8298    5.7609    0.0000 C   0  0  0  0  0  0  0  0  0  0  0  0
    0.5716    4.2833    0.0000 C   0  0  0  0  0  0  0  0  0  0  0  0
   -1.0953    2.2905    0.0000 O   0  0  0  0  0  0  0  0  0  0  0  0
   -2.5041    1.7752    0.0000 C   0  0  0  0  0  0  0  0  0  0  0  0
   -3.6546    2.7376    0.0000 C   0  0  0  0  0  0  0  0  0  0  0  0
   -5.0634    2.2224    0.0000 C   0  0  0  0  0  0  0  0  0  0  0  0
   -5.3215    0.7448    0.0000 C   0  0  0  0  0  0  0  0  0  0  0  0
   -4.1710   -0.2176    0.0000 C   0  0  0  0  0  0  0  0  0  0  0  0
   -2.7622    0.2976    0.0000 C   0  0  0  0  0  0  0  0  0  0  0  0
    0.9476   -1.1119    0.0000 P   0  0  0  0  0  0  0  0  0  0  0  0
    0.6894   -2.5896    0.0000 O   0  0  0  0  0  0  0  0  0  0  0  0
   -0.7193   -3.1048    0.0000 C   0  0  0  0  0  0  0  0  0  0  0  0
   -0.9775   -4.5824    0.0000 C   0  0  0  0  0  0  0  0  0  0  0  0
   -2.3862   -5.0976    0.0000 C   0  0  0  0  0  0  0  0  0  0  0  0
   -3.5368   -4.1352    0.0000 C   0  0  0  0  0  0  0  0  0  0  0  0
   -3.2786   -2.6576    0.0000 C   0  0  0  0  0  0  0  0  0  0  0  0
   -1.8699   -2.1424    0.0000 C   0  0  0  0  0  0  0  0  0  0  0  0
    2.3564   -0.5967    0.0000 O   0  0  0  0  0  0  0  0  0  0  0  0
    3.5069   -1.5591    0.0000 C   0  0  0  0  0  0  0  0  0  0  0  0
    3.2487   -3.0367    0.0000 C   0  0  0  0  0  0  0  0  0  0  0  0
    4.3993   -3.9991    0.0000 C   0  0  0  0  0  0  0  0  0  0  0  0
    5.8081   -3.4839    0.0000 C   0  0  0  0  0  0  0  0  0  0  0  0
    6.0662   -2.0063    0.0000 C   0  0  0  0  0  0  0  0  0  0  0  0
    4.9157   -1.0439    0.0000 C   0  0  0  0  0  0  0  0  0  0  0  0
  1  2  1  0
  2  3  1  0
  3  4  1  0
  4  5  1  0
  5  6  1  0
  6  7  1  0
  7  8  2  0
  8  9  1  0
  9 10  2  0
 10 11  1  0
 11 12  2  0
  5 13  1  0
 13 14  1  0
 14 15  2  0
 15 16  1  0
 16 17  2  0
 17 18  1  0
 18 19  2  0
  4 20  1  0
 20 21  1  0
 21 22  1  0
 22 23  2  0
 23 24  1  0
 24 25  2  0
 25 26  1  0
 26 27  2  0
 20 28  1  0
 28 29  1  0
 29 30  2  0
 30 31  1  0
 31 32  2  0
 32 33  1  0
 33 34  2  0
 12  7  1  0
 19 14  1  0
 27 22  1  0
 34 29  1  0
M  END
>  <linear_selectivity>  (1043) 
86

>  <denticity>  (1043) 
2

>  <ligand_class>  (1043) 
diphosphite

$$$$
diphosphite-C4_110C_benzene
     RDKit          2D

 34 37  0  0  0  0  0  0  0  0999 V2000
   -3.4224   -0.1492    0.0000 C   0  0  0  0  0  0  0  0  0  0  0  0
   -2.7622    0.2976    0.0000 C   0  0  0  0  0  0  0  0  0  0  0  0
   -1.6117   -0.6648    0.0000 C   0  0  0  0  0  0  0  0  0  0  0  0
   -0.2029   -0.1495    0.0000 C   0  0  0  0  0  0  0  0  0  0  0  0
    0.0552    1.3281    0.0000 P   0  0  0  0  0  0  0  0  0  0  0  0
    1.4640    1.8433    0.0000 O   0  0  0  0  0  0  0  0  0  0  0  0
    1.7222    3.3209    0.0000 C   0  0  0  0  0  0  0  0  0  0  0  0
    3.1309    3.8361    0.0000 C   0  0  0  0  0  0  0  0  0  0  0  0
    3.3891    5.3137    0.0000 C   0  0  0  0  0  0  0  0  0  0  0  0
    2.2385    6.2761    0.0000 C   0  0  0  0  0  0  0  0  0  0  0  0
    0.8298    5.7609    0.0000 C   0  0  0  0  0  0  0  0  0  0  0  0
    0.5716    4.2833    0.0000 C   0  0  0  0  0  0  0  0  0  0  0  0
   -1.0953    2.2905    0.0000 O   0  0  0  0  0  0  0  0  0  0  0  0
   -2.5041    1.7752    0.0000 C   0  0  0  0  0  0  0  0  0  0  0  0
   -3.6546    2.7376    0.0000 C   0  0  0  0  0  0  0  0  0  0  0  0
   -5.0634    2.2224    0.0000 C   0  0  0  0  0  0  0  0  0  0  0  0
   -5.3215    0.7448    0.0000 C   0  0  0  0  0  0  0  0  0  0  0  0
   -4.1710   -0.2176    0.0000 C   0  0  0  0  0  0  0  0  0  0  0  0
   -2.7622    0.2976    0.0000 C   0  0  0  0  0  0  0  0  0  0  0  0
    0.9476   -1.1119    0.0000 P   0  0  0  0  0  0  0  0  0  0  0  0
    0.6894   -2.5896    0.0000 O   0  0  0  0  0  0  0  0  0  0  0  0
   -0.7193   -3.1048    0.0000 C   0  0  0  0  0  0  0  0  0  0  0  0
   -0.9775   -4.5824    0.0000 C   0  0  0  0  0  0  0  0  0  0  0  0
   -2.3862   -5.0976    0.0000 C   0  0  0  0  0  0  0  0  0  0  0  0
   -3.5368   -4.1352    0.0000 C   0  0  0  0  0  0  0  0  0  0  0  0
   -3.2786   -2.6576    0.0000 C   0  0  0  0  0  0  0  0  0  0  0  0
   -1.8699   -2.1424    0.0000 C   0  0  0  0  0  0  0  0  0  0  0  0
    2.3564   -0.5967    0.0000 O   0  0  0  0  0  0  0  0  0  0  0  0
    3.5069   -1.5591    0.0000 C   0  0  0  0  0  0  0  0  0  0  0  0
    3.2487   -3.0367    0.0000 C   0  0  0  0  0  0  0  0  0  0  0  0
    4.3993   -3.9991    0.0000 C   0  0  0  0  0  0  0  0  0  0  0  0
    5.8081   -3.4839    0.0000 C   0  0  0  0  0  0  0  0  0  0  0  0
    6.0662   -2.0063    0.0000 C   0  0  0  0  0  0  0  0  0  0  0  0
    4.9157   -1.0439    0.0000 C   0  0  0  0  0  0  0  0  0  0  0  0
  1  2  1  0
  2  3  1  0
  3  4  1  0
  4  5  1  0
  5  6  1  0
  6  7  1  0
  7  8  2  0
  8  9  1  0
  9 10  2  0
 10 11  1  0
 11 12  2  0
  5 13  1  0
 13 14  1  0
 14 15  2  0
 15 16  1  0
 16 17  2  0
 17 18  1  0
 18 19  2  0
  4 20  1  0
 20 21  1  0
 21 22  1  0
 22 23  2  0
 23 24  1  0
 24 25  2  0
 25 26  1  0
 26 27  2  0
 20 28  1  0
 28 29  1  0
 29 30  2  0
 30 31  1  0
 31 32  2  0
 32 33  1  0
 33 34  2  0
 12  7  1  0
 19 14  1  0
 27 22  1  0
 34 29  1  0
M  END
>  <linear_selectivity>  (1044) 
86

>  <denticity>  (1044) 
2

>  <ligand_class>  (1044) 
diphosphite

$$$$
diphosphite-C4_110C_xylene
     RDKit          2D

 34 37  0  0  0  0  0  0  0  0999 V2000
   -3.4224   -0.1492    0.0000 C   0  0  0  0  0  0  0  0  0  0  0  0
   -2.7622    0.2976    0.0000 C   0  0  0  0  0  0  0  0  0  0  0  0
   -1.6117   -0.6648    0.0000 C   0  0  0  0  0  0  0  0  0  0  0  0
   -0.2029   -0.1495    0.0000 C   0  0  0  0  0  0  0  0  0  0  0  0
    0.0552    1.3281    0.0000 P   0  0  0  0  0  0  0  0  0  0  0  0
    1.4640    1.8433    0.0000 O   0  0  0  0  0  0  0  0  0  0  0  0
    1.7222    3.3209    0.0000 C   0  0  0  0  0  0  0  0  0  0  0  0
    3.1309    3.8361    0.0000 C   0  0  0  0  0  0  0  0  0  0  0  0
    3.3891    5.3137    0.0000 C   0  0  0  0  0  0  0  0  0  0  0  0
    2.2385    6.2761    0.0000 C   0  0  0  0  0  0  0  0  0  0  0  0
    0.8298    5.7609    0.0000 C   0  0  0  0  0  0  0  0  0  0  0  0
    0.5716    4.2833    0.0000 C   0  0  0  0  0  0  0  0  0  0  0  0
   -1.0953    2.2905    0.0000 O   0  0  0  0  0  0  0  0  0  0  0  0
   -2.5041    1.7752    0.0000 C   0  0  0  0  0  0  0  0  0  0  0  0
   -3.6546    2.7376    0.0000 C   0  0  0  0  0  0  0  0  0  0  0  0
   -5.0634    2.2224    0.0000 C   0  0  0  0  0  0  0  0  0  0  0  0
   -5.3215    0.7448    0.0000 C   0  0  0  0  0  0  0  0  0  0  0  0
   -4.1710   -0.2176    0.0000 C   0  0  0  0  0  0  0  0  0  0  0  0
   -2.7622    0.2976    0.0000 C   0  0  0  0  0  0  0  0  0  0  0  0
    0.9476   -1.1119    0.0000 P   0  0  0  0  0  0  0  0  0  0  0  0
    0.6894   -2.5896    0.0000 O   0  0  0  0  0  0  0  0  0  0  0  0
   -0.7193   -3.1048    0.0000 C   0  0  0  0  0  0  0  0  0  0  0  0
   -0.9775   -4.5824    0.0000 C   0  0  0  0  0  0  0  0  0  0  0  0
   -2.3862   -5.0976    0.0000 C   0  0  0  0  0  0  0  0  0  0  0  0
   -3.5368   -4.1352    0.0000 C   0  0  0  0  0  0  0  0  0  0  0  0
   -3.2786   -2.6576    0.0000 C   0  0  0  0  0  0  0  0  0  0  0  0
   -1.8699   -2.1424    0.0000 C   0  0  0  0  0  0  0  0  0  0  0  0
    2.3564   -0.5967    0.0000 O   0  0  0  0  0  0  0  0  0  0  0  0
    3.5069   -1.5591    0.0000 C   0  0  0  0  0  0  0  0  0  0  0  0
    3.2487   -3.0367    0.0000 C   0  0  0  0  0  0  0  0  0  0  0  0
    4.3993   -3.9991    0.0000 C   0  0  0  0  0  0  0  0  0  0  0  0
    5.8081   -3.4839    0.0000 C   0  0  0  0  0  0  0  0  0  0  0  0
    6.0662   -2.0063    0.0000 C   0  0  0  0  0  0  0  0  0  0  0  0
    4.9157   -1.0439    0.0000 C   0  0  0  0  0  0  0  0  0  0  0  0
  1  2  1  0
  2  3  1  0
  3  4  1  0
  4  5  1  0
  5  6  1  0
  6  7  1  0
  7  8  2  0
  8  9  1  0
  9 10  2  0
 10 11  1  0
 11 12  2  0
  5 13  1  0
 13 14  1  0
 14 15  2  0
 15 16  1  0
 16 17  2  0
 17 18  1  0
 18 19  2  0
  4 20  1  0
 20 21  1  0
 21 22  1  0
 22 23  2  0
 23 24  1  0
 24 25  2  0
 25 26  1  0
 26 27  2  0
 20 28  1  0
 28 29  1  0
 29 30  2  0
 30 31  1  0
 31 32  2  0
 32 33  1  0
 33 34  2  0
 12  7  1  0
 19 14  1  0
 27 22  1  0
 34 29  1  0
M  END
>  <linear_selectivity>  (1045) 
86

>  <denticity>  (1045) 
2

>  <ligand_class>  (1045) 
diphosphite

$$$$
diphosphite-C4_120C_toluene
     RDKit          2D

 34 37  0  0  0  0  0  0  0  0999 V2000
   -3.4224   -0.1492    0.0000 C   0  0  0  0  0  0  0  0  0  0  0  0
   -2.7622    0.2976    0.0000 C   0  0  0  0  0  0  0  0  0  0  0  0
   -1.6117   -0.6648    0.0000 C   0  0  0  0  0  0  0  0  0  0  0  0
   -0.2029   -0.1495    0.0000 C   0  0  0  0  0  0  0  0  0  0  0  0
    0.0552    1.3281    0.0000 P   0  0  0  0  0  0  0  0  0  0  0  0
    1.4640    1.8433    0.0000 O   0  0  0  0  0  0  0  0  0  0  0  0
    1.7222    3.3209    0.0000 C   0  0  0  0  0  0  0  0  0  0  0  0
    3.1309    3.8361    0.0000 C   0  0  0  0  0  0  0  0  0  0  0  0
    3.3891    5.3137    0.0000 C   0  0  0  0  0  0  0  0  0  0  0  0
    2.2385    6.2761    0.0000 C   0  0  0  0  0  0  0  0  0  0  0  0
    0.8298    5.7609    0.0000 C   0  0  0  0  0  0  0  0  0  0  0  0
    0.5716    4.2833    0.0000 C   0  0  0  0  0  0  0  0  0  0  0  0
   -1.0953    2.2905    0.0000 O   0  0  0  0  0  0  0  0  0  0  0  0
   -2.5041    1.7752    0.0000 C   0  0  0  0  0  0  0  0  0  0  0  0
   -3.6546    2.7376    0.0000 C   0  0  0  0  0  0  0  0  0  0  0  0
   -5.0634    2.2224    0.0000 C   0  0  0  0  0  0  0  0  0  0  0  0
   -5.3215    0.7448    0.0000 C   0  0  0  0  0  0  0  0  0  0  0  0
   -4.1710   -0.2176    0.0000 C   0  0  0  0  0  0  0  0  0  0  0  0
   -2.7622    0.2976    0.0000 C   0  0  0  0  0  0  0  0  0  0  0  0
    0.9476   -1.1119    0.0000 P   0  0  0  0  0  0  0  0  0  0  0  0
    0.6894   -2.5896    0.0000 O   0  0  0  0  0  0  0  0  0  0  0  0
   -0.7193   -3.1048    0.0000 C   0  0  0  0  0  0  0  0  0  0  0  0
   -0.9775   -4.5824    0.0000 C   0  0  0  0  0  0  0  0  0  0  0  0
   -2.3862   -5.0976    0.0000 C   0  0  0  0  0  0  0  0  0  0  0  0
   -3.5368   -4.1352    0.0000 C   0  0  0  0  0  0  0  0  0  0  0  0
   -3.2786   -2.6576    0.0000 C   0  0  0  0  0  0  0  0  0  0  0  0
   -1.8699   -2.1424    0.0000 C   0  0  0  0  0  0  0  0  0  0  0  0
    2.3564   -0.5967    0.0000 O   0  0  0  0  0  0  0  0  0  0  0  0
    3.5069   -1.5591    0.0000 C   0  0  0  0  0  0  0  0  0  0  0  0
    3.2487   -3.0367    0.0000 C   0  0  0  0  0  0  0  0  0  0  0  0
    4.3993   -3.9991    0.0000 C   0  0  0  0  0  0  0  0  0  0  0  0
    5.8081   -3.4839    0.0000 C   0  0  0  0  0  0  0  0  0  0  0  0
    6.0662   -2.0063    0.0000 C   0  0  0  0  0  0  0  0  0  0  0  0
    4.9157   -1.0439    0.0000 C   0  0  0  0  0  0  0  0  0  0  0  0
  1  2  1  0
  2  3  1  0
  3  4  1  0
  4  5  1  0
  5  6  1  0
  6  7  1  0
  7  8  2  0
  8  9  1  0
  9 10  2  0
 10 11  1  0
 11 12  2  0
  5 13  1  0
 13 14  1  0
 14 15  2  0
 15 16  1  0
 16 17  2  0
 17 18  1  0
 18 19  2  0
  4 20  1  0
 20 21  1  0
 21 22  1  0
 22 23  2  0
 23 24  1  0
 24 25  2  0
 25 26  1  0
 26 27  2  0
 20 28  1  0
 28 29  1  0
 29 30  2  0
 30 31  1  0
 31 32  2  0
 32 33  1  0
 33 34  2  0
 12  7  1  0
 19 14  1  0
 27 22  1  0
 34 29  1  0
M  END
>  <linear_selectivity>  (1046) 
78

>  <denticity>  (1046) 
2

>  <ligand_class>  (1046) 
diphosphite

$$$$
diphosphite-C4_120C_THF
     RDKit          2D

 34 37  0  0  0  0  0  0  0  0999 V2000
   -3.4224   -0.1492    0.0000 C   0  0  0  0  0  0  0  0  0  0  0  0
   -2.7622    0.2976    0.0000 C   0  0  0  0  0  0  0  0  0  0  0  0
   -1.6117   -0.6648    0.0000 C   0  0  0  0  0  0  0  0  0  0  0  0
   -0.2029   -0.1495    0.0000 C   0  0  0  0  0  0  0  0  0  0  0  0
    0.0552    1.3281    0.0000 P   0  0  0  0  0  0  0  0  0  0  0  0
    1.4640    1.8433    0.0000 O   0  0  0  0  0  0  0  0  0  0  0  0
    1.7222    3.3209    0.0000 C   0  0  0  0  0  0  0  0  0  0  0  0
    3.1309    3.8361    0.0000 C   0  0  0  0  0  0  0  0  0  0  0  0
    3.3891    5.3137    0.0000 C   0  0  0  0  0  0  0  0  0  0  0  0
    2.2385    6.2761    0.0000 C   0  0  0  0  0  0  0  0  0  0  0  0
    0.8298    5.7609    0.0000 C   0  0  0  0  0  0  0  0  0  0  0  0
    0.5716    4.2833    0.0000 C   0  0  0  0  0  0  0  0  0  0  0  0
   -1.0953    2.2905    0.0000 O   0  0  0  0  0  0  0  0  0  0  0  0
   -2.5041    1.7752    0.0000 C   0  0  0  0  0  0  0  0  0  0  0  0
   -3.6546    2.7376    0.0000 C   0  0  0  0  0  0  0  0  0  0  0  0
   -5.0634    2.2224    0.0000 C   0  0  0  0  0  0  0  0  0  0  0  0
   -5.3215    0.7448    0.0000 C   0  0  0  0  0  0  0  0  0  0  0  0
   -4.1710   -0.2176    0.0000 C   0  0  0  0  0  0  0  0  0  0  0  0
   -2.7622    0.2976    0.0000 C   0  0  0  0  0  0  0  0  0  0  0  0
    0.9476   -1.1119    0.0000 P   0  0  0  0  0  0  0  0  0  0  0  0
    0.6894   -2.5896    0.0000 O   0  0  0  0  0  0  0  0  0  0  0  0
   -0.7193   -3.1048    0.0000 C   0  0  0  0  0  0  0  0  0  0  0  0
   -0.9775   -4.5824    0.0000 C   0  0  0  0  0  0  0  0  0  0  0  0
   -2.3862   -5.0976    0.0000 C   0  0  0  0  0  0  0  0  0  0  0  0
   -3.5368   -4.1352    0.0000 C   0  0  0  0  0  0  0  0  0  0  0  0
   -3.2786   -2.6576    0.0000 C   0  0  0  0  0  0  0  0  0  0  0  0
   -1.8699   -2.1424    0.0000 C   0  0  0  0  0  0  0  0  0  0  0  0
    2.3564   -0.5967    0.0000 O   0  0  0  0  0  0  0  0  0  0  0  0
    3.5069   -1.5591    0.0000 C   0  0  0  0  0  0  0  0  0  0  0  0
    3.2487   -3.0367    0.0000 C   0  0  0  0  0  0  0  0  0  0  0  0
    4.3993   -3.9991    0.0000 C   0  0  0  0  0  0  0  0  0  0  0  0
    5.8081   -3.4839    0.0000 C   0  0  0  0  0  0  0  0  0  0  0  0
    6.0662   -2.0063    0.0000 C   0  0  0  0  0  0  0  0  0  0  0  0
    4.9157   -1.0439    0.0000 C   0  0  0  0  0  0  0  0  0  0  0  0
  1  2  1  0
  2  3  1  0
  3  4  1  0
  4  5  1  0
  5  6  1  0
  6  7  1  0
  7  8  2  0
  8  9  1  0
  9 10  2  0
 10 11  1  0
 11 12  2  0
  5 13  1  0
 13 14  1  0
 14 15  2  0
 15 16  1  0
 16 17  2  0
 17 18  1  0
 18 19  2  0
  4 20  1  0
 20 21  1  0
 21 22  1  0
 22 23  2  0
 23 24  1  0
 24 25  2  0
 25 26  1  0
 26 27  2  0
 20 28  1  0
 28 29  1  0
 29 30  2  0
 30 31  1  0
 31 32  2  0
 32 33  1  0
 33 34  2  0
 12  7  1  0
 19 14  1  0
 27 22  1  0
 34 29  1  0
M  END
>  <linear_selectivity>  (1047) 
74

>  <denticity>  (1047) 
2

>  <ligand_class>  (1047) 
diphosphite

$$$$
diphosphite-C4_120C_hexane
     RDKit          2D

 34 37  0  0  0  0  0  0  0  0999 V2000
   -3.4224   -0.1492    0.0000 C   0  0  0  0  0  0  0  0  0  0  0  0
   -2.7622    0.2976    0.0000 C   0  0  0  0  0  0  0  0  0  0  0  0
   -1.6117   -0.6648    0.0000 C   0  0  0  0  0  0  0  0  0  0  0  0
   -0.2029   -0.1495    0.0000 C   0  0  0  0  0  0  0  0  0  0  0  0
    0.0552    1.3281    0.0000 P   0  0  0  0  0  0  0  0  0  0  0  0
    1.4640    1.8433    0.0000 O   0  0  0  0  0  0  0  0  0  0  0  0
    1.7222    3.3209    0.0000 C   0  0  0  0  0  0  0  0  0  0  0  0
    3.1309    3.8361    0.0000 C   0  0  0  0  0  0  0  0  0  0  0  0
    3.3891    5.3137    0.0000 C   0  0  0  0  0  0  0  0  0  0  0  0
    2.2385    6.2761    0.0000 C   0  0  0  0  0  0  0  0  0  0  0  0
    0.8298    5.7609    0.0000 C   0  0  0  0  0  0  0  0  0  0  0  0
    0.5716    4.2833    0.0000 C   0  0  0  0  0  0  0  0  0  0  0  0
   -1.0953    2.2905    0.0000 O   0  0  0  0  0  0  0  0  0  0  0  0
   -2.5041    1.7752    0.0000 C   0  0  0  0  0  0  0  0  0  0  0  0
   -3.6546    2.7376    0.0000 C   0  0  0  0  0  0  0  0  0  0  0  0
   -5.0634    2.2224    0.0000 C   0  0  0  0  0  0  0  0  0  0  0  0
   -5.3215    0.7448    0.0000 C   0  0  0  0  0  0  0  0  0  0  0  0
   -4.1710   -0.2176    0.0000 C   0  0  0  0  0  0  0  0  0  0  0  0
   -2.7622    0.2976    0.0000 C   0  0  0  0  0  0  0  0  0  0  0  0
    0.9476   -1.1119    0.0000 P   0  0  0  0  0  0  0  0  0  0  0  0
    0.6894   -2.5896    0.0000 O   0  0  0  0  0  0  0  0  0  0  0  0
   -0.7193   -3.1048    0.0000 C   0  0  0  0  0  0  0  0  0  0  0  0
   -0.9775   -4.5824    0.0000 C   0  0  0  0  0  0  0  0  0  0  0  0
   -2.3862   -5.0976    0.0000 C   0  0  0  0  0  0  0  0  0  0  0  0
   -3.5368   -4.1352    0.0000 C   0  0  0  0  0  0  0  0  0  0  0  0
   -3.2786   -2.6576    0.0000 C   0  0  0  0  0  0  0  0  0  0  0  0
   -1.8699   -2.1424    0.0000 C   0  0  0  0  0  0  0  0  0  0  0  0
    2.3564   -0.5967    0.0000 O   0  0  0  0  0  0  0  0  0  0  0  0
    3.5069   -1.5591    0.0000 C   0  0  0  0  0  0  0  0  0  0  0  0
    3.2487   -3.0367    0.0000 C   0  0  0  0  0  0  0  0  0  0  0  0
    4.3993   -3.9991    0.0000 C   0  0  0  0  0  0  0  0  0  0  0  0
    5.8081   -3.4839    0.0000 C   0  0  0  0  0  0  0  0  0  0  0  0
    6.0662   -2.0063    0.0000 C   0  0  0  0  0  0  0  0  0  0  0  0
    4.9157   -1.0439    0.0000 C   0  0  0  0  0  0  0  0  0  0  0  0
  1  2  1  0
  2  3  1  0
  3  4  1  0
  4  5  1  0
  5  6  1  0
  6  7  1  0
  7  8  2  0
  8  9  1  0
  9 10  2  0
 10 11  1  0
 11 12  2  0
  5 13  1  0
 13 14  1  0
 14 15  2  0
 15 16  1  0
 16 17  2  0
 17 18  1  0
 18 19  2  0
  4 20  1  0
 20 21  1  0
 21 22  1  0
 22 23  2  0
 23 24  1  0
 24 25  2  0
 25 26  1  0
 26 27  2  0
 20 28  1  0
 28 29  1  0
 29 30  2  0
 30 31  1  0
 31 32  2  0
 32 33  1  0
 33 34  2  0
 12  7  1  0
 19 14  1  0
 27 22  1  0
 34 29  1  0
M  END
>  <linear_selectivity>  (1048) 
84

>  <denticity>  (1048) 
2

>  <ligand_class>  (1048) 
diphosphite

$$$$
diphosphite-C4_120C_benzene
     RDKit          2D

 34 37  0  0  0  0  0  0  0  0999 V2000
   -3.4224   -0.1492    0.0000 C   0  0  0  0  0  0  0  0  0  0  0  0
   -2.7622    0.2976    0.0000 C   0  0  0  0  0  0  0  0  0  0  0  0
   -1.6117   -0.6648    0.0000 C   0  0  0  0  0  0  0  0  0  0  0  0
   -0.2029   -0.1495    0.0000 C   0  0  0  0  0  0  0  0  0  0  0  0
    0.0552    1.3281    0.0000 P   0  0  0  0  0  0  0  0  0  0  0  0
    1.4640    1.8433    0.0000 O   0  0  0  0  0  0  0  0  0  0  0  0
    1.7222    3.3209    0.0000 C   0  0  0  0  0  0  0  0  0  0  0  0
    3.1309    3.8361    0.0000 C   0  0  0  0  0  0  0  0  0  0  0  0
    3.3891    5.3137    0.0000 C   0  0  0  0  0  0  0  0  0  0  0  0
    2.2385    6.2761    0.0000 C   0  0  0  0  0  0  0  0  0  0  0  0
    0.8298    5.7609    0.0000 C   0  0  0  0  0  0  0  0  0  0  0  0
    0.5716    4.2833    0.0000 C   0  0  0  0  0  0  0  0  0  0  0  0
   -1.0953    2.2905    0.0000 O   0  0  0  0  0  0  0  0  0  0  0  0
   -2.5041    1.7752    0.0000 C   0  0  0  0  0  0  0  0  0  0  0  0
   -3.6546    2.7376    0.0000 C   0  0  0  0  0  0  0  0  0  0  0  0
   -5.0634    2.2224    0.0000 C   0  0  0  0  0  0  0  0  0  0  0  0
   -5.3215    0.7448    0.0000 C   0  0  0  0  0  0  0  0  0  0  0  0
   -4.1710   -0.2176    0.0000 C   0  0  0  0  0  0  0  0  0  0  0  0
   -2.7622    0.2976    0.0000 C   0  0  0  0  0  0  0  0  0  0  0  0
    0.9476   -1.1119    0.0000 P   0  0  0  0  0  0  0  0  0  0  0  0
    0.6894   -2.5896    0.0000 O   0  0  0  0  0  0  0  0  0  0  0  0
   -0.7193   -3.1048    0.0000 C   0  0  0  0  0  0  0  0  0  0  0  0
   -0.9775   -4.5824    0.0000 C   0  0  0  0  0  0  0  0  0  0  0  0
   -2.3862   -5.0976    0.0000 C   0  0  0  0  0  0  0  0  0  0  0  0
   -3.5368   -4.1352    0.0000 C   0  0  0  0  0  0  0  0  0  0  0  0
   -3.2786   -2.6576    0.0000 C   0  0  0  0  0  0  0  0  0  0  0  0
   -1.8699   -2.1424    0.0000 C   0  0  0  0  0  0  0  0  0  0  0  0
    2.3564   -0.5967    0.0000 O   0  0  0  0  0  0  0  0  0  0  0  0
    3.5069   -1.5591    0.0000 C   0  0  0  0  0  0  0  0  0  0  0  0
    3.2487   -3.0367    0.0000 C   0  0  0  0  0  0  0  0  0  0  0  0
    4.3993   -3.9991    0.0000 C   0  0  0  0  0  0  0  0  0  0  0  0
    5.8081   -3.4839    0.0000 C   0  0  0  0  0  0  0  0  0  0  0  0
    6.0662   -2.0063    0.0000 C   0  0  0  0  0  0  0  0  0  0  0  0
    4.9157   -1.0439    0.0000 C   0  0  0  0  0  0  0  0  0  0  0  0
  1  2  1  0
  2  3  1  0
  3  4  1  0
  4  5  1  0
  5  6  1  0
  6  7  1  0
  7  8  2  0
  8  9  1  0
  9 10  2  0
 10 11  1  0
 11 12  2  0
  5 13  1  0
 13 14  1  0
 14 15  2  0
 15 16  1  0
 16 17  2  0
 17 18  1  0
 18 19  2  0
  4 20  1  0
 20 21  1  0
 21 22  1  0
 22 23  2  0
 23 24  1  0
 24 25  2  0
 25 26  1  0
 26 27  2  0
 20 28  1  0
 28 29  1  0
 29 30  2  0
 30 31  1  0
 31 32  2  0
 32 33  1  0
 33 34  2  0
 12  7  1  0
 19 14  1  0
 27 22  1  0
 34 29  1  0
M  END
>  <linear_selectivity>  (1049) 
79

>  <denticity>  (1049) 
2

>  <ligand_class>  (1049) 
diphosphite

$$$$
diphosphite-C4_130C_toluene
     RDKit          2D

 34 37  0  0  0  0  0  0  0  0999 V2000
   -3.4224   -0.1492    0.0000 C   0  0  0  0  0  0  0  0  0  0  0  0
   -2.7622    0.2976    0.0000 C   0  0  0  0  0  0  0  0  0  0  0  0
   -1.6117   -0.6648    0.0000 C   0  0  0  0  0  0  0  0  0  0  0  0
   -0.2029   -0.1495    0.0000 C   0  0  0  0  0  0  0  0  0  0  0  0
    0.0552    1.3281    0.0000 P   0  0  0  0  0  0  0  0  0  0  0  0
    1.4640    1.8433    0.0000 O   0  0  0  0  0  0  0  0  0  0  0  0
    1.7222    3.3209    0.0000 C   0  0  0  0  0  0  0  0  0  0  0  0
    3.1309    3.8361    0.0000 C   0  0  0  0  0  0  0  0  0  0  0  0
    3.3891    5.3137    0.0000 C   0  0  0  0  0  0  0  0  0  0  0  0
    2.2385    6.2761    0.0000 C   0  0  0  0  0  0  0  0  0  0  0  0
    0.8298    5.7609    0.0000 C   0  0  0  0  0  0  0  0  0  0  0  0
    0.5716    4.2833    0.0000 C   0  0  0  0  0  0  0  0  0  0  0  0
   -1.0953    2.2905    0.0000 O   0  0  0  0  0  0  0  0  0  0  0  0
   -2.5041    1.7752    0.0000 C   0  0  0  0  0  0  0  0  0  0  0  0
   -3.6546    2.7376    0.0000 C   0  0  0  0  0  0  0  0  0  0  0  0
   -5.0634    2.2224    0.0000 C   0  0  0  0  0  0  0  0  0  0  0  0
   -5.3215    0.7448    0.0000 C   0  0  0  0  0  0  0  0  0  0  0  0
   -4.1710   -0.2176    0.0000 C   0  0  0  0  0  0  0  0  0  0  0  0
   -2.7622    0.2976    0.0000 C   0  0  0  0  0  0  0  0  0  0  0  0
    0.9476   -1.1119    0.0000 P   0  0  0  0  0  0  0  0  0  0  0  0
    0.6894   -2.5896    0.0000 O   0  0  0  0  0  0  0  0  0  0  0  0
   -0.7193   -3.1048    0.0000 C   0  0  0  0  0  0  0  0  0  0  0  0
   -0.9775   -4.5824    0.0000 C   0  0  0  0  0  0  0  0  0  0  0  0
   -2.3862   -5.0976    0.0000 C   0  0  0  0  0  0  0  0  0  0  0  0
   -3.5368   -4.1352    0.0000 C   0  0  0  0  0  0  0  0  0  0  0  0
   -3.2786   -2.6576    0.0000 C   0  0  0  0  0  0  0  0  0  0  0  0
   -1.8699   -2.1424    0.0000 C   0  0  0  0  0  0  0  0  0  0  0  0
    2.3564   -0.5967    0.0000 O   0  0  0  0  0  0  0  0  0  0  0  0
    3.5069   -1.5591    0.0000 C   0  0  0  0  0  0  0  0  0  0  0  0
    3.2487   -3.0367    0.0000 C   0  0  0  0  0  0  0  0  0  0  0  0
    4.3993   -3.9991    0.0000 C   0  0  0  0  0  0  0  0  0  0  0  0
    5.8081   -3.4839    0.0000 C   0  0  0  0  0  0  0  0  0  0  0  0
    6.0662   -2.0063    0.0000 C   0  0  0  0  0  0  0  0  0  0  0  0
    4.9157   -1.0439    0.0000 C   0  0  0  0  0  0  0  0  0  0  0  0
  1  2  1  0
  2  3  1  0
  3  4  1  0
  4  5  1  0
  5  6  1  0
  6  7  1  0
  7  8  2  0
  8  9  1  0
  9 10  2  0
 10 11  1  0
 11 12  2  0
  5 13  1  0
 13 14  1  0
 14 15  2  0
 15 16  1  0
 16 17  2  0
 17 18  1  0
 18 19  2  0
  4 20  1  0
 20 21  1  0
 21 22  1  0
 22 23  2  0
 23 24  1  0
 24 25  2  0
 25 26  1  0
 26 27  2  0
 20 28  1  0
 28 29  1  0
 29 30  2  0
 30 31  1  0
 31 32  2  0
 32 33  1  0
 33 34  2  0
 12  7  1  0
 19 14  1  0
 27 22  1  0
 34 29  1  0
M  END
>  <linear_selectivity>  (1050) 
75

>  <denticity>  (1050) 
2

>  <ligand_class>  (1050) 
diphosphite

$$$$
diphosphite-C4_130C_THF
     RDKit          2D

 34 37  0  0  0  0  0  0  0  0999 V2000
   -3.4224   -0.1492    0.0000 C   0  0  0  0  0  0  0  0  0  0  0  0
   -2.7622    0.2976    0.0000 C   0  0  0  0  0  0  0  0  0  0  0  0
   -1.6117   -0.6648    0.0000 C   0  0  0  0  0  0  0  0  0  0  0  0
   -0.2029   -0.1495    0.0000 C   0  0  0  0  0  0  0  0  0  0  0  0
    0.0552    1.3281    0.0000 P   0  0  0  0  0  0  0  0  0  0  0  0
    1.4640    1.8433    0.0000 O   0  0  0  0  0  0  0  0  0  0  0  0
    1.7222    3.3209    0.0000 C   0  0  0  0  0  0  0  0  0  0  0  0
    3.1309    3.8361    0.0000 C   0  0  0  0  0  0  0  0  0  0  0  0
    3.3891    5.3137    0.0000 C   0  0  0  0  0  0  0  0  0  0  0  0
    2.2385    6.2761    0.0000 C   0  0  0  0  0  0  0  0  0  0  0  0
    0.8298    5.7609    0.0000 C   0  0  0  0  0  0  0  0  0  0  0  0
    0.5716    4.2833    0.0000 C   0  0  0  0  0  0  0  0  0  0  0  0
   -1.0953    2.2905    0.0000 O   0  0  0  0  0  0  0  0  0  0  0  0
   -2.5041    1.7752    0.0000 C   0  0  0  0  0  0  0  0  0  0  0  0
   -3.6546    2.7376    0.0000 C   0  0  0  0  0  0  0  0  0  0  0  0
   -5.0634    2.2224    0.0000 C   0  0  0  0  0  0  0  0  0  0  0  0
   -5.3215    0.7448    0.0000 C   0  0  0  0  0  0  0  0  0  0  0  0
   -4.1710   -0.2176    0.0000 C   0  0  0  0  0  0  0  0  0  0  0  0
   -2.7622    0.2976    0.0000 C   0  0  0  0  0  0  0  0  0  0  0  0
    0.9476   -1.1119    0.0000 P   0  0  0  0  0  0  0  0  0  0  0  0
    0.6894   -2.5896    0.0000 O   0  0  0  0  0  0  0  0  0  0  0  0
   -0.7193   -3.1048    0.0000 C   0  0  0  0  0  0  0  0  0  0  0  0
   -0.9775   -4.5824    0.0000 C   0  0  0  0  0  0  0  0  0  0  0  0
   -2.3862   -5.0976    0.0000 C   0  0  0  0  0  0  0  0  0  0  0  0
   -3.5368   -4.1352    0.0000 C   0  0  0  0  0  0  0  0  0  0  0  0
   -3.2786   -2.6576    0.0000 C   0  0  0  0  0  0  0  0  0  0  0  0
   -1.8699   -2.1424    0.0000 C   0  0  0  0  0  0  0  0  0  0  0  0
    2.3564   -0.5967    0.0000 O   0  0  0  0  0  0  0  0  0  0  0  0
    3.5069   -1.5591    0.0000 C   0  0  0  0  0  0  0  0  0  0  0  0
    3.2487   -3.0367    0.0000 C   0  0  0  0  0  0  0  0  0  0  0  0
    4.3993   -3.9991    0.0000 C   0  0  0  0  0  0  0  0  0  0  0  0
    5.8081   -3.4839    0.0000 C   0  0  0  0  0  0  0  0  0  0  0  0
    6.0662   -2.0063    0.0000 C   0  0  0  0  0  0  0  0  0  0  0  0
    4.9157   -1.0439    0.0000 C   0  0  0  0  0  0  0  0  0  0  0  0
  1  2  1  0
  2  3  1  0
  3  4  1  0
  4  5  1  0
  5  6  1  0
  6  7  1  0
  7  8  2  0
  8  9  1  0
  9 10  2  0
 10 11  1  0
 11 12  2  0
  5 13  1  0
 13 14  1  0
 14 15  2  0
 15 16  1  0
 16 17  2  0
 17 18  1  0
 18 19  2  0
  4 20  1  0
 20 21  1  0
 21 22  1  0
 22 23  2  0
 23 24  1  0
 24 25  2  0
 25 26  1  0
 26 27  2  0
 20 28  1  0
 28 29  1  0
 29 30  2  0
 30 31  1  0
 31 32  2  0
 32 33  1  0
 33 34  2  0
 12  7  1  0
 19 14  1  0
 27 22  1  0
 34 29  1  0
M  END
>  <linear_selectivity>  (1051) 
74

>  <denticity>  (1051) 
2

>  <ligand_class>  (1051) 
diphosphite

$$$$
diphosphite-C4_130C_dioxane
     RDKit          2D

 34 37  0  0  0  0  0  0  0  0999 V2000
   -3.4224   -0.1492    0.0000 C   0  0  0  0  0  0  0  0  0  0  0  0
   -2.7622    0.2976    0.0000 C   0  0  0  0  0  0  0  0  0  0  0  0
   -1.6117   -0.6648    0.0000 C   0  0  0  0  0  0  0  0  0  0  0  0
   -0.2029   -0.1495    0.0000 C   0  0  0  0  0  0  0  0  0  0  0  0
    0.0552    1.3281    0.0000 P   0  0  0  0  0  0  0  0  0  0  0  0
    1.4640    1.8433    0.0000 O   0  0  0  0  0  0  0  0  0  0  0  0
    1.7222    3.3209    0.0000 C   0  0  0  0  0  0  0  0  0  0  0  0
    3.1309    3.8361    0.0000 C   0  0  0  0  0  0  0  0  0  0  0  0
    3.3891    5.3137    0.0000 C   0  0  0  0  0  0  0  0  0  0  0  0
    2.2385    6.2761    0.0000 C   0  0  0  0  0  0  0  0  0  0  0  0
    0.8298    5.7609    0.0000 C   0  0  0  0  0  0  0  0  0  0  0  0
    0.5716    4.2833    0.0000 C   0  0  0  0  0  0  0  0  0  0  0  0
   -1.0953    2.2905    0.0000 O   0  0  0  0  0  0  0  0  0  0  0  0
   -2.5041    1.7752    0.0000 C   0  0  0  0  0  0  0  0  0  0  0  0
   -3.6546    2.7376    0.0000 C   0  0  0  0  0  0  0  0  0  0  0  0
   -5.0634    2.2224    0.0000 C   0  0  0  0  0  0  0  0  0  0  0  0
   -5.3215    0.7448    0.0000 C   0  0  0  0  0  0  0  0  0  0  0  0
   -4.1710   -0.2176    0.0000 C   0  0  0  0  0  0  0  0  0  0  0  0
   -2.7622    0.2976    0.0000 C   0  0  0  0  0  0  0  0  0  0  0  0
    0.9476   -1.1119    0.0000 P   0  0  0  0  0  0  0  0  0  0  0  0
    0.6894   -2.5896    0.0000 O   0  0  0  0  0  0  0  0  0  0  0  0
   -0.7193   -3.1048    0.0000 C   0  0  0  0  0  0  0  0  0  0  0  0
   -0.9775   -4.5824    0.0000 C   0  0  0  0  0  0  0  0  0  0  0  0
   -2.3862   -5.0976    0.0000 C   0  0  0  0  0  0  0  0  0  0  0  0
   -3.5368   -4.1352    0.0000 C   0  0  0  0  0  0  0  0  0  0  0  0
   -3.2786   -2.6576    0.0000 C   0  0  0  0  0  0  0  0  0  0  0  0
   -1.8699   -2.1424    0.0000 C   0  0  0  0  0  0  0  0  0  0  0  0
    2.3564   -0.5967    0.0000 O   0  0  0  0  0  0  0  0  0  0  0  0
    3.5069   -1.5591    0.0000 C   0  0  0  0  0  0  0  0  0  0  0  0
    3.2487   -3.0367    0.0000 C   0  0  0  0  0  0  0  0  0  0  0  0
    4.3993   -3.9991    0.0000 C   0  0  0  0  0  0  0  0  0  0  0  0
    5.8081   -3.4839    0.0000 C   0  0  0  0  0  0  0  0  0  0  0  0
    6.0662   -2.0063    0.0000 C   0  0  0  0  0  0  0  0  0  0  0  0
    4.9157   -1.0439    0.0000 C   0  0  0  0  0  0  0  0  0  0  0  0
  1  2  1  0
  2  3  1  0
  3  4  1  0
  4  5  1  0
  5  6  1  0
  6  7  1  0
  7  8  2  0
  8  9  1  0
  9 10  2  0
 10 11  1  0
 11 12  2  0
  5 13  1  0
 13 14  1  0
 14 15  2  0
 15 16  1  0
 16 17  2  0
 17 18  1  0
 18 19  2  0
  4 20  1  0
 20 21  1  0
 21 22  1  0
 22 23  2  0
 23 24  1  0
 24 25  2  0
 25 26  1  0
 26 27  2  0
 20 28  1  0
 28 29  1  0
 29 30  2  0
 30 31  1  0
 31 32  2  0
 32 33  1  0
 33 34  2  0
 12  7  1  0
 19 14  1  0
 27 22  1  0
 34 29  1  0
M  END
>  <linear_selectivity>  (1052) 
75

>  <denticity>  (1052) 
2

>  <ligand_class>  (1052) 
diphosphite

$$$$
diphosphite-C4_130C_hexane
     RDKit          2D

 34 37  0  0  0  0  0  0  0  0999 V2000
   -3.4224   -0.1492    0.0000 C   0  0  0  0  0  0  0  0  0  0  0  0
   -2.7622    0.2976    0.0000 C   0  0  0  0  0  0  0  0  0  0  0  0
   -1.6117   -0.6648    0.0000 C   0  0  0  0  0  0  0  0  0  0  0  0
   -0.2029   -0.1495    0.0000 C   0  0  0  0  0  0  0  0  0  0  0  0
    0.0552    1.3281    0.0000 P   0  0  0  0  0  0  0  0  0  0  0  0
    1.4640    1.8433    0.0000 O   0  0  0  0  0  0  0  0  0  0  0  0
    1.7222    3.3209    0.0000 C   0  0  0  0  0  0  0  0  0  0  0  0
    3.1309    3.8361    0.0000 C   0  0  0  0  0  0  0  0  0  0  0  0
    3.3891    5.3137    0.0000 C   0  0  0  0  0  0  0  0  0  0  0  0
    2.2385    6.2761    0.0000 C   0  0  0  0  0  0  0  0  0  0  0  0
    0.8298    5.7609    0.0000 C   0  0  0  0  0  0  0  0  0  0  0  0
    0.5716    4.2833    0.0000 C   0  0  0  0  0  0  0  0  0  0  0  0
   -1.0953    2.2905    0.0000 O   0  0  0  0  0  0  0  0  0  0  0  0
   -2.5041    1.7752    0.0000 C   0  0  0  0  0  0  0  0  0  0  0  0
   -3.6546    2.7376    0.0000 C   0  0  0  0  0  0  0  0  0  0  0  0
   -5.0634    2.2224    0.0000 C   0  0  0  0  0  0  0  0  0  0  0  0
   -5.3215    0.7448    0.0000 C   0  0  0  0  0  0  0  0  0  0  0  0
   -4.1710   -0.2176    0.0000 C   0  0  0  0  0  0  0  0  0  0  0  0
   -2.7622    0.2976    0.0000 C   0  0  0  0  0  0  0  0  0  0  0  0
    0.9476   -1.1119    0.0000 P   0  0  0  0  0  0  0  0  0  0  0  0
    0.6894   -2.5896    0.0000 O   0  0  0  0  0  0  0  0  0  0  0  0
   -0.7193   -3.1048    0.0000 C   0  0  0  0  0  0  0  0  0  0  0  0
   -0.9775   -4.5824    0.0000 C   0  0  0  0  0  0  0  0  0  0  0  0
   -2.3862   -5.0976    0.0000 C   0  0  0  0  0  0  0  0  0  0  0  0
   -3.5368   -4.1352    0.0000 C   0  0  0  0  0  0  0  0  0  0  0  0
   -3.2786   -2.6576    0.0000 C   0  0  0  0  0  0  0  0  0  0  0  0
   -1.8699   -2.1424    0.0000 C   0  0  0  0  0  0  0  0  0  0  0  0
    2.3564   -0.5967    0.0000 O   0  0  0  0  0  0  0  0  0  0  0  0
    3.5069   -1.5591    0.0000 C   0  0  0  0  0  0  0  0  0  0  0  0
    3.2487   -3.0367    0.0000 C   0  0  0  0  0  0  0  0  0  0  0  0
    4.3993   -3.9991    0.0000 C   0  0  0  0  0  0  0  0  0  0  0  0
    5.8081   -3.4839    0.0000 C   0  0  0  0  0  0  0  0  0  0  0  0
    6.0662   -2.0063    0.0000 C   0  0  0  0  0  0  0  0  0  0  0  0
    4.9157   -1.0439    0.0000 C   0  0  0  0  0  0  0  0  0  0  0  0
  1  2  1  0
  2  3  1  0
  3  4  1  0
  4  5  1  0
  5  6  1  0
  6  7  1  0
  7  8  2  0
  8  9  1  0
  9 10  2  0
 10 11  1  0
 11 12  2  0
  5 13  1  0
 13 14  1  0
 14 15  2  0
 15 16  1  0
 16 17  2  0
 17 18  1  0
 18 19  2  0
  4 20  1  0
 20 21  1  0
 21 22  1  0
 22 23  2  0
 23 24  1  0
 24 25  2  0
 25 26  1  0
 26 27  2  0
 20 28  1  0
 28 29  1  0
 29 30  2  0
 30 31  1  0
 31 32  2  0
 32 33  1  0
 33 34  2  0
 12  7  1  0
 19 14  1  0
 27 22  1  0
 34 29  1  0
M  END
>  <linear_selectivity>  (1053) 
79

>  <denticity>  (1053) 
2

>  <ligand_class>  (1053) 
diphosphite

$$$$
diphosphite-C4_130C_xylene
     RDKit          2D

 34 37  0  0  0  0  0  0  0  0999 V2000
   -3.4224   -0.1492    0.0000 C   0  0  0  0  0  0  0  0  0  0  0  0
   -2.7622    0.2976    0.0000 C   0  0  0  0  0  0  0  0  0  0  0  0
   -1.6117   -0.6648    0.0000 C   0  0  0  0  0  0  0  0  0  0  0  0
   -0.2029   -0.1495    0.0000 C   0  0  0  0  0  0  0  0  0  0  0  0
    0.0552    1.3281    0.0000 P   0  0  0  0  0  0  0  0  0  0  0  0
    1.4640    1.8433    0.0000 O   0  0  0  0  0  0  0  0  0  0  0  0
    1.7222    3.3209    0.0000 C   0  0  0  0  0  0  0  0  0  0  0  0
    3.1309    3.8361    0.0000 C   0  0  0  0  0  0  0  0  0  0  0  0
    3.3891    5.3137    0.0000 C   0  0  0  0  0  0  0  0  0  0  0  0
    2.2385    6.2761    0.0000 C   0  0  0  0  0  0  0  0  0  0  0  0
    0.8298    5.7609    0.0000 C   0  0  0  0  0  0  0  0  0  0  0  0
    0.5716    4.2833    0.0000 C   0  0  0  0  0  0  0  0  0  0  0  0
   -1.0953    2.2905    0.0000 O   0  0  0  0  0  0  0  0  0  0  0  0
   -2.5041    1.7752    0.0000 C   0  0  0  0  0  0  0  0  0  0  0  0
   -3.6546    2.7376    0.0000 C   0  0  0  0  0  0  0  0  0  0  0  0
   -5.0634    2.2224    0.0000 C   0  0  0  0  0  0  0  0  0  0  0  0
   -5.3215    0.7448    0.0000 C   0  0  0  0  0  0  0  0  0  0  0  0
   -4.1710   -0.2176    0.0000 C   0  0  0  0  0  0  0  0  0  0  0  0
   -2.7622    0.2976    0.0000 C   0  0  0  0  0  0  0  0  0  0  0  0
    0.9476   -1.1119    0.0000 P   0  0  0  0  0  0  0  0  0  0  0  0
    0.6894   -2.5896    0.0000 O   0  0  0  0  0  0  0  0  0  0  0  0
   -0.7193   -3.1048    0.0000 C   0  0  0  0  0  0  0  0  0  0  0  0
   -0.9775   -4.5824    0.0000 C   0  0  0  0  0  0  0  0  0  0  0  0
   -2.3862   -5.0976    0.0000 C   0  0  0  0  0  0  0  0  0  0  0  0
   -3.5368   -4.1352    0.0000 C   0  0  0  0  0  0  0  0  0  0  0  0
   -3.2786   -2.6576    0.0000 C   0  0  0  0  0  0  0  0  0  0  0  0
   -1.8699   -2.1424    0.0000 C   0  0  0  0  0  0  0  0  0  0  0  0
    2.3564   -0.5967    0.0000 O   0  0  0  0  0  0  0  0  0  0  0  0
    3.5069   -1.5591    0.0000 C   0  0  0  0  0  0  0  0  0  0  0  0
    3.2487   -3.0367    0.0000 C   0  0  0  0  0  0  0  0  0  0  0  0
    4.3993   -3.9991    0.0000 C   0  0  0  0  0  0  0  0  0  0  0  0
    5.8081   -3.4839    0.0000 C   0  0  0  0  0  0  0  0  0  0  0  0
    6.0662   -2.0063    0.0000 C   0  0  0  0  0  0  0  0  0  0  0  0
    4.9157   -1.0439    0.0000 C   0  0  0  0  0  0  0  0  0  0  0  0
  1  2  1  0
  2  3  1  0
  3  4  1  0
  4  5  1  0
  5  6  1  0
  6  7  1  0
  7  8  2  0
  8  9  1  0
  9 10  2  0
 10 11  1  0
 11 12  2  0
  5 13  1  0
 13 14  1  0
 14 15  2  0
 15 16  1  0
 16 17  2  0
 17 18  1  0
 18 19  2  0
  4 20  1  0
 20 21  1  0
 21 22  1  0
 22 23  2  0
 23 24  1  0
 24 25  2  0
 25 26  1  0
 26 27  2  0
 20 28  1  0
 28 29  1  0
 29 30  2  0
 30 31  1  0
 31 32  2  0
 32 33  1  0
 33 34  2  0
 12  7  1  0
 19 14  1  0
 27 22  1  0
 34 29  1  0
M  END
>  <linear_selectivity>  (1054) 
74

>  <denticity>  (1054) 
2

>  <ligand_class>  (1054) 
diphosphite

$$$$
